24
Coordinates from ORCA-job anthracene-9,10-dione_orca_opt
  O   0.17689163884231      2.67314571605417     -0.55573794541978
  C   0.09684505636164      1.46408825569167     -0.33628956811421
  C   -1.22368904548774      0.75978612170371     -0.31317587137256
  C   -1.31638030412725     -0.63280732018732     -0.06119505183980
  C   -2.57907586551230     -1.25580978002970     -0.04789599240707
  C   -3.73770137862099     -0.50595717808303     -0.28420697604405
  C   -3.64602553608011      0.87682512519827     -0.53485463786534
  C   -2.39503711240592      1.50536067761143     -0.54888971726906
  C   1.31584582929779      0.63279644185377     -0.08484012360944
  C   1.22345175744288     -0.75983541705856      0.16720072125765
  C   2.39503203634264     -1.50550137310819      0.40112401035332
  C   3.64578540920171     -0.87676804177898      0.38514739700081
  C   3.73757026387270      0.50617231748822      0.13442240635573
  C   2.57872727614999      1.25590618287930     -0.10003814985166
  C   -0.09771341709024     -1.46339470128956      0.19243972974991
  O   -0.17700157008720     -2.67315404989792      0.40827168492961
  H   -2.61757788354191     -2.33687996864312      0.15368597552980
  H   -4.72213570827821     -0.99888777878871     -0.27372142692651
  H   -4.55865678672214      1.46341900107524     -0.72070025078965
  H   -2.28516230401426      2.58311878643979     -0.74235951565068
  H   2.28741940097184     -2.58335379363219      0.59503340492333
  H   4.55897153086946     -1.46296529239938      0.56954852518389
  H   4.72265349911135      0.99779867558563      0.12277216867996
  H   2.61686321350395      2.33699739331547     -0.30154079680418
