322
cage_7-isoquinoline_1-4-napythyl_2-7-napthaly.xyz
Pd	-10.016215	0.179757	-0.447598
Pd	9.985775	-0.184804	0.440786
H	8.026956	1.620342	-0.903226
H	12.076132	1.945924	0.135687
H	12.228590	4.262660	-0.798060
H	8.933802	7.175937	-2.905531
H	11.024719	6.240395	-1.948117
H	6.798930	3.506117	-2.017904
H	3.283520	6.651522	-1.889210
H	5.388594	5.513560	-1.225754
H	8.358186	6.047122	-5.027028
H	8.160798	7.119358	-7.244376
H	6.025353	8.271574	-7.909022
H	4.109404	8.343006	-6.336692
H	-0.995918	6.404485	-3.854635
H	1.482540	6.353349	-3.738064
H	3.755016	9.977118	-4.490017
H	1.654040	11.230629	-4.906919
H	-0.855701	11.279906	-5.035048
H	-3.035992	10.111926	-4.830531
H	-5.148239	5.731315	-1.726835
H	-2.955581	6.802007	-2.180137
H	-3.274774	8.474879	-6.697676
H	-5.023397	8.446731	-8.456702
H	-7.245400	7.356900	-8.008461
H	-7.697592	6.306634	-5.817594
H	-7.888412	1.923731	-1.600052
H	-12.010763	2.358121	-0.971797
H	-12.016286	4.658085	-1.958447
H	-8.465641	7.456228	-3.783850
H	-10.659683	6.583551	-3.025375
H	-6.513409	3.759464	-2.624338
C	8.936131	2.243222	-0.890803
N	10.039198	1.706243	-0.354945
C	11.204279	2.433024	-0.323740
C	11.275013	3.715458	-0.841103
C	8.938311	6.150465	-2.508094
C	10.106504	5.634132	-1.969167
C	10.125111	4.321478	-1.417944
C	8.902947	3.553545	-1.435700
C	7.719310	4.109627	-1.994556
C	7.712020	5.400592	-2.531568
C	4.128997	6.632595	-2.593497
C	5.324799	5.982556	-2.219793
C	6.456550	6.006770	-3.039775
C	6.369529	6.642339	-4.333093
C	7.436120	6.589815	-5.280406
C	7.322814	7.177406	-6.532947
C	6.119992	7.825408	-6.908002
C	5.052606	7.875140	-6.022540
C	5.138388	7.304679	-4.716031
C	4.019394	7.323703	-3.802957
C	-0.967948	7.476199	-4.108576
C	0.299048	8.120485	-4.214672
C	1.522944	7.425568	-3.987972
C	2.760739	8.062770	-4.097932
C	2.787622	9.455764	-4.435215
C	1.615009	10.158686	-4.658752
C	0.344133	9.519562	-4.561979
C	-0.884385	10.208240	-4.784423
C	-2.100549	9.553165	-4.678733
C	-2.162697	8.162273	-4.338422
C	-4.970000	6.187299	-2.713148
C	-3.724604	6.799602	-2.967482
C	-3.470982	7.471821	-4.165904
C	-4.491843	7.476759	-5.187014
C	-4.257921	8.035472	-6.480167
C	-5.230821	8.009066	-7.469033
C	-6.482865	7.396556	-7.215525
C	-6.739375	6.821252	-5.978607
C	-5.774218	6.852472	-4.927171
C	-6.010596	6.231163	-3.645585
C	-8.779336	2.566218	-1.690994
N	-9.941930	2.064508	-1.256724
C	-11.087318	2.816453	-1.353128
C	-11.076376	4.089514	-1.897541
C	-8.531386	6.438304	-3.372155
C	-9.758330	5.957652	-2.942082
C	-9.862000	4.657759	-2.370820
C	-8.662098	3.864230	-2.254167
C	-7.417028	4.383287	-2.703914
C	-7.325963	5.663158	-3.260619
H	7.896954	1.100255	2.134539
H	11.953696	0.191860	2.677788
H	11.960494	1.159029	4.986001
H	8.463081	3.208102	7.696904
H	10.624200	2.302147	6.882370
H	6.543172	2.205304	3.937994
H	2.870709	2.025437	6.875163
H	5.055561	1.404363	5.874088
H	7.884301	5.295785	6.519537
H	7.566306	7.518409	7.550773
H	5.351093	8.137078	8.569914
H	3.476583	6.514533	8.549821
H	-1.420867	3.867831	6.288114
H	1.056649	3.821722	6.415342
H	3.043194	4.689914	10.178013
H	0.847179	5.056082	11.274403
H	-1.662984	5.101042	11.146795
H	-3.747894	4.814548	9.830843
H	-5.465321	1.610691	5.358667
H	-3.356741	2.142542	6.556406
H	-3.919227	6.661189	8.161098
H	-5.717072	8.362833	8.010110
H	-7.856528	7.832565	6.797103
H	-8.175900	5.619336	5.746739
H	-8.013102	1.393120	1.399969
H	-12.132496	0.646301	1.626621
H	-12.281878	1.629977	3.922997
H	-8.930337	3.560103	6.892084
H	-11.055643	2.732793	5.913647
H	-6.762340	2.457081	3.300544
C	8.773358	1.125545	2.802438
N	9.918035	0.617749	2.328975
C	11.045293	0.631250	3.113705
C	11.035146	1.166481	4.390765
C	8.529890	2.797506	6.678578
C	9.737830	2.285896	6.230176
C	9.839464	1.716820	4.929119
C	8.657730	1.686834	4.101066
C	7.431874	2.218565	4.587818
C	7.343121	2.774992	5.867659
C	3.696605	2.752438	6.895446
C	4.938133	2.402715	6.323405
C	6.043278	3.255206	6.398152
C	5.884464	4.553565	7.009285
C	6.925952	5.529760	7.004933
C	6.745439	6.785237	7.568738
C	5.497774	7.134419	8.141829
C	4.453057	6.221271	8.140491
C	4.606397	4.911281	7.592843
C	3.512551	3.969206	7.557449
C	-1.477404	4.132658	7.356042
C	-0.262945	4.284390	8.087072
C	1.013164	4.086539	7.483809
C	2.199346	4.240608	8.205175
C	2.117384	4.597498	9.590915
C	0.891638	4.793238	10.206248
C	-0.327613	4.648425	9.481103
C	-1.607973	4.838675	10.078978
C	-2.770778	4.687524	9.341257
C	-2.723891	4.332282	7.953302
C	-5.346959	2.605067	5.816409
C	-4.149134	2.904399	6.500107
C	-3.976447	4.113676	7.178312
C	-5.027285	5.102081	7.110945
C	-4.867649	6.407460	7.667773
C	-5.867801	7.364595	7.573202
C	-7.072851	7.065207	6.891033
C	-7.255689	5.815161	6.315879
C	-6.261188	4.795694	6.414952
C	-6.418807	3.502066	5.793154
C	-8.937552	1.457031	1.996673
N	-10.060596	0.990341	1.437308
C	-11.244439	1.053232	2.130716
C	-11.313199	1.596551	3.402426
C	-8.934323	3.145605	5.873378
C	-10.122083	2.677987	5.333571
C	-10.143194	2.104429	4.030655
C	-8.901846	2.022755	3.298353
C	-7.698016	2.509595	3.878146
C	-7.689027	3.071146	5.158871
H	7.866011	-1.938838	1.589867
H	11.988351	-2.360679	0.953842
H	12.002028	-4.662519	1.936529
H	8.461680	-7.471425	3.767013
H	10.652175	-6.592706	3.004433
H	6.497746	-3.779282	2.612426
H	2.941834	-6.818164	2.178305
H	5.134802	-5.751393	1.716996
H	7.697218	-6.328540	5.798557
H	7.251733	-7.377708	7.991579
H	5.029023	-8.462546	8.448664
H	3.274165	-8.489201	6.696408
H	-1.486072	-6.349267	3.740024
H	0.992164	-6.411181	3.854015
H	3.017461	-10.124560	4.838124
H	0.832465	-11.281005	5.053100
H	-1.677586	-11.219892	4.934830
H	-3.773965	-9.957590	4.519081
H	-5.406512	-5.514676	1.235396
H	-3.302226	-6.657253	1.894284
H	-4.103577	-8.303502	6.362085
H	-6.006710	-8.207422	7.949085
H	-8.140254	-7.047532	7.290968
H	-8.349223	-5.994838	5.065940
H	-8.043698	-1.617306	0.888996
H	-12.101847	-1.948061	-0.112295
H	-12.248837	-4.255738	0.844541
H	-8.941131	-7.152221	2.953374
H	-11.038096	-6.223690	2.003487
H	-6.809252	-3.493311	2.014612
C	8.758881	-2.578917	1.677922
N	9.919510	-2.072914	1.243149
C	11.066837	-2.822327	1.335929
C	11.060539	-4.096189	1.878707
C	8.523832	-6.453489	3.354815
C	9.749055	-5.969086	2.923451
C	9.848209	-4.668496	2.353001
C	8.646208	-3.877933	2.239037
C	7.403147	-4.400810	2.689969
C	7.316291	-5.681415	3.245271
C	3.713509	-6.816617	2.962999
C	4.959361	-6.207228	2.703906
C	6.002881	-6.252262	3.632870
C	5.769932	-6.872418	4.915529
C	6.739011	-6.842077	5.963334
C	6.486063	-7.415963	7.201608
C	5.233920	-8.026286	7.459803
C	4.257120	-8.051384	6.474769
C	4.487320	-7.494342	5.180206
C	3.462732	-7.487339	4.162850
C	-1.530806	-7.419891	3.996256
C	-0.309598	-8.119685	4.223119
C	0.960056	-7.481846	4.111423
C	2.152382	-8.172351	4.341313
C	2.084401	-9.561764	4.686516
C	0.865403	-10.210452	4.798302
C	-0.360664	-9.516955	4.576827
C	-1.634203	-10.149448	4.681125
C	-2.804044	-9.441600	4.458286
C	-2.771088	-8.050697	4.113237
C	-5.337514	-5.974086	2.233510
C	-4.142512	-6.627309	2.604456
C	-4.027541	-7.307356	3.819609
C	-5.139401	-7.273219	4.740887
C	-5.046637	-7.833019	6.051523
C	-6.106512	-7.769299	6.945053
C	-7.308237	-7.117178	6.573598
C	-7.428227	-6.540485	5.316596
C	-6.369820	-6.608038	4.360995
C	-6.463106	-5.983910	3.062335
C	-8.953585	-2.239421	0.890674
N	-10.060622	-1.706435	0.359303
C	-11.226871	-2.431774	0.344698
C	-11.294321	-3.709333	0.874249
C	-8.948042	-6.129982	2.547693
C	-10.119195	-5.618125	2.011567
C	-10.140820	-4.310754	1.448097
C	-8.917368	-3.544458	1.448572
C	-7.730343	-4.096098	2.004582
C	-7.720972	-5.380961	2.556381
H	7.986800	-1.400500	-1.409869
H	12.101759	-0.630547	-1.638583
H	12.253348	-1.602557	-3.939951
H	8.907554	-3.536418	-6.913337
H	11.030239	-2.703483	-5.933382
H	6.738312	-2.458726	-3.314854
H	3.327083	-2.143483	-6.562713
H	5.436021	-1.607397	-5.367481
H	8.163009	-5.601923	-5.777100
H	7.850934	-7.813036	-6.834863
H	5.710960	-8.348153	-8.044653
H	3.905433	-6.654046	-8.185935
H	-1.078095	-3.827915	-6.420780
H	1.399627	-3.872208	-6.298320
H	3.721352	-4.805580	-9.848111
H	1.634482	-5.094704	-11.159704
H	-0.876036	-5.056983	-11.281872
H	-3.070686	-4.696787	-10.180153
H	-5.083497	-1.417745	-5.875146
H	-2.898716	-2.033554	-6.879373
H	-3.493939	-6.525462	-8.548400
H	-5.363686	-8.153972	-8.564553
H	-7.578710	-7.541273	-7.541267
H	-7.901946	-5.318899	-6.511878
H	-7.922519	-1.106741	-2.136828
H	-11.982327	-0.211958	-2.680059
H	-11.988042	-1.187207	-4.984843
H	-8.487068	-3.233187	-7.692762
H	-10.650054	-2.331283	-6.879036
H	-6.567462	-2.216331	-3.937582
C	8.910716	-1.456133	-2.008104
N	10.032275	-0.986577	-1.447764
C	11.215191	-1.039687	-2.143570
C	11.285264	-1.576952	-3.417773
C	8.910576	-3.125966	-5.893012
C	10.096967	-2.655534	-5.352265
C	10.116725	-2.087558	-4.046927
C	8.876137	-2.015193	-3.312509
C	7.673777	-2.504609	-3.893376
C	7.665791	-3.059531	-5.176932
C	4.122759	-2.902181	-6.511037
C	5.321033	-2.600354	-5.829202
C	6.396659	-3.492903	-5.811853
C	6.243040	-4.784750	-6.437959
C	7.242355	-5.799985	-6.344840
C	7.063772	-7.048698	-6.924170
C	5.858410	-7.350769	-7.604598
C	4.853727	-6.397845	-7.693584
C	5.008974	-5.093673	-7.132690
C	3.953766	-4.109615	-7.193553
C	-1.036231	-4.092228	-7.489526
C	0.239064	-4.286929	-8.095706
C	1.454664	-4.134131	-7.366963
C	2.700536	-4.329938	-7.967009
C	2.745117	-4.681894	-9.355897
C	1.581056	-4.834604	-10.091235
C	0.301371	-4.648690	-9.490438
C	-0.918908	-4.795481	-10.213331
C	-2.143752	-4.603241	-9.595019
C	-2.223383	-4.247743	-8.208791
C	-4.963880	-2.416354	-6.323262
C	-3.722608	-2.762949	-6.897580
C	-3.536154	-3.979683	-7.558893
C	-4.627201	-4.925157	-7.590898
C	-4.470798	-6.234958	-8.138083
C	-5.512518	-7.151549	-8.136748
C	-6.760184	-6.805542	-7.561713
C	-6.943597	-5.550212	-6.998452
C	-5.905251	-4.570660	-7.005427
C	-6.066790	-3.272067	-6.395202
C	-8.799384	-1.137305	-2.804022
N	-9.944907	-0.630692	-2.331804
C	-11.073081	-0.650346	-3.115131
C	-11.062138	-1.189563	-4.390479
C	-8.554591	-2.820855	-6.675167
C	-9.763282	-2.310839	-6.227474
C	-9.865634	-1.738564	-4.927829
C	-8.683205	-1.703137	-4.100845
C	-7.456542	-2.233535	-4.586768
C	-7.367399	-2.793908	-5.864951
