234
cage_7-isoquinoline_NH_1-8-anthracene.xyz
Pd	-5.176455	-0.543921	-1.322715
Pd	5.073677	0.545243	1.304296
H	4.186942	-0.347278	-1.418990
H	6.931669	2.483102	0.004676
H	7.530195	3.208908	-2.320226
H	5.937270	1.871785	-6.708405
H	7.095967	3.004468	-4.849757
H	3.816154	-0.693065	-3.895886
H	3.443149	-0.815837	-6.232865
H	3.053880	0.333601	-12.261620
H	6.619459	-0.406747	-7.556467
H	7.216842	-0.245774	-9.979525
H	5.431506	0.081264	-11.695904
H	1.813605	0.164193	-7.401860
H	0.691920	0.580745	-12.889653
H	-1.705245	0.812100	-12.221404
H	-2.343465	0.815485	-9.804910
H	-0.169598	1.093440	-7.101839
H	-3.100854	0.430827	-3.249972
H	-6.198433	-2.387709	-3.438229
H	-5.632729	-2.988394	-5.805541
H	-2.157990	-1.488003	-8.851708
H	-4.057143	-2.676906	-7.820161
H	-1.603935	0.877916	-5.235595
C	4.909218	0.445871	-1.668030
N	5.521806	1.051430	-0.638775
C	6.456731	2.029426	-0.875326
C	6.775959	2.422403	-2.166922
C	5.743595	1.552465	-5.674966
C	6.386557	2.190816	-4.634596
C	6.137287	1.822095	-3.279032
C	5.168965	0.777529	-3.028616
C	4.530180	0.119211	-4.107548
C	4.811285	0.476571	-5.441934
N	4.183313	-0.157178	-6.487533
C	2.781460	0.296196	-11.195145
C	4.509471	-0.089920	-7.868976
C	5.826634	-0.220315	-8.296369
C	6.164495	-0.143233	-9.676780
C	5.177264	0.030681	-10.626465
C	3.802665	0.136849	-10.238646
C	3.443357	0.084862	-8.830459
C	2.084780	0.202393	-8.467894
C	1.064304	0.364483	-9.428690
C	1.424137	0.408633	-10.836949
C	0.401398	0.557163	-11.828429
C	-0.923947	0.679144	-11.458771
C	-1.289728	0.664550	-10.083396
C	-0.335680	0.492885	-9.086037
N	-0.706994	0.476602	-7.715923
C	-3.622704	-0.330359	-3.850634
N	-4.650135	-0.965243	-3.265363
C	-5.364505	-1.905802	-3.965835
C	-5.036971	-2.231153	-5.274178
C	-2.472649	-1.224655	-7.832778
C	-3.530991	-1.894097	-7.252979
C	-3.948434	-1.597299	-5.921255
C	-3.210434	-0.592541	-5.188353
C	-2.137097	0.097521	-5.802118
C	-1.757204	-0.188342	-7.129040
H	3.472606	2.798395	0.136405
H	6.055206	2.415460	3.417658
H	5.696769	4.801691	4.094520
H	2.943653	8.370849	2.282118
H	4.465423	7.026774	3.683925
H	2.348631	4.993820	-0.404810
H	1.233458	7.053339	-0.720387
H	-1.350313	12.587895	-0.154160
H	3.661499	9.390084	0.110406
H	3.370463	11.872043	0.162736
H	1.084234	12.874284	0.033635
H	-0.831496	7.596554	-0.080959
H	-3.790951	12.363894	-0.338271
H	-5.821787	10.912705	-0.418995
H	-5.600318	8.426987	-0.289963
H	-2.752281	6.654529	0.581659
H	-4.083135	2.009588	-0.184365
H	-6.543126	1.051153	-3.440464
H	-6.675937	3.447497	-4.164361
H	-4.680726	7.529987	-2.449976
H	-5.905238	5.879366	-3.812394
H	-3.427507	4.400850	0.311472
C	3.934808	3.281804	1.011003
N	4.757705	2.528577	1.756967
C	5.387267	3.075906	2.848486
C	5.176755	4.397728	3.213163
C	3.166234	7.332783	1.999128
C	4.012907	6.579236	2.786280
C	4.302530	5.220315	2.462283
C	3.659634	4.649063	1.300098
C	2.806656	5.439511	0.492487
C	2.555356	6.789332	0.811000
N	1.719481	7.550937	0.029819
C	-1.235935	11.492206	-0.137683
C	1.549151	8.961346	0.046866
C	2.646487	9.814099	0.100707
C	2.480781	11.227423	0.114055
C	1.217928	11.781651	0.037911
C	0.058569	10.944928	-0.046744
C	0.208878	9.498987	-0.032106
C	-0.946074	8.691159	-0.096122
C	-2.242109	9.242561	-0.178882
C	-2.390524	10.688707	-0.207016
C	-3.696548	11.267420	-0.309026
C	-4.819163	10.464651	-0.358075
C	-4.692375	9.048487	-0.302290
C	-3.443916	8.439693	-0.234510
N	-3.323939	7.024900	-0.181786
C	-4.633789	2.374721	-1.065306
N	-5.286714	1.456394	-1.794313
C	-6.019725	1.843769	-2.889353
C	-6.082494	3.173534	-3.279254
C	-4.693783	6.475294	-2.140444
C	-5.374076	5.550998	-2.906348
C	-5.388090	4.169485	-2.550724
C	-4.642248	3.763950	-1.380412
C	-3.965007	4.726832	-0.593139
C	-3.989222	6.092581	-0.941459
H	2.816016	1.051343	3.209563
H	6.477466	-0.974958	3.449905
H	6.065547	-1.627516	5.835833
H	2.344616	-0.881392	8.866747
H	4.464108	-1.629370	7.852601
H	1.258856	1.198015	5.194276
H	-0.176423	1.148177	7.075654
H	-3.131222	-0.391457	12.236696
H	1.984188	1.408843	9.789250
H	1.363329	1.245278	12.204819
H	-0.903410	0.427302	12.868868
H	-1.897958	-0.193004	7.377000
H	-5.375525	-1.212942	11.667133
H	-7.037843	-1.926236	9.944533
H	-6.431582	-1.890882	7.518550
H	-3.242743	-1.491015	6.196316
H	-4.070469	-1.158057	1.390164
H	-7.429959	0.917533	-0.016522
H	-8.199093	1.436151	2.313645
H	-6.340420	0.467407	6.695672
H	-7.740608	1.300476	4.845090
H	-3.623163	-1.421080	3.861441
C	3.498329	0.446243	3.826935
N	4.644039	0.049226	3.252006
C	5.555454	-0.683979	3.970872
C	5.311898	-1.041099	5.289131
C	2.588960	-0.578540	7.839645
C	3.771107	-1.003964	7.269095
C	4.108072	-0.655479	5.927089
C	3.158632	0.133563	5.174440
C	1.957530	0.577493	5.778643
C	1.655792	0.250390	7.116658
N	0.486088	0.678679	7.697516
C	-2.860110	-0.348772	11.170175
C	0.114507	0.613291	9.066828
C	0.997245	1.009436	10.066046
C	0.637942	0.929770	11.440888
C	-0.616321	0.483070	11.808069
C	-1.572222	0.095934	10.814180
C	-1.213831	0.152375	9.406497
C	-2.168129	-0.237321	8.443005
C	-3.458420	-0.680569	8.802957
C	-3.814647	-0.739114	10.211133
C	-5.121216	-1.180940	10.596847
C	-6.041956	-1.569994	9.643711
C	-5.702129	-1.536653	8.262172
C	-4.456365	-1.086878	7.837674
N	-4.127055	-1.048420	6.456657
C	-4.968278	-0.572743	1.643438
N	-5.712447	-0.129533	0.618580
C	-6.860177	0.584143	0.860950
C	-7.271088	0.866941	2.155651
C	-6.067155	0.225894	5.659195
C	-6.846322	0.698766	4.623230
C	-6.506075	0.429012	3.264149
C	-5.304245	-0.332301	3.006225
C	-4.522575	-0.823584	4.079803
C	-4.891295	-0.573995	5.417298
H	3.574877	-2.027854	1.675042
H	7.295842	-0.994082	0.043944
H	7.796973	-3.375896	-0.557947
H	5.267353	-7.498689	-0.099931
H	6.988790	-5.820231	-0.652450
H	2.780450	-4.423950	1.729151
H	2.082313	-6.680407	1.593263
H	1.272656	-12.577833	0.074835
H	4.998253	-8.457322	2.205786
H	5.269165	-10.940834	2.131060
H	3.476206	-12.373663	1.142735
H	0.745881	-7.586734	0.058243
H	-0.925293	-12.845696	-0.990226
H	-2.979851	-11.826219	-1.983757
H	-3.235017	-9.341810	-2.074253
H	-0.745625	-6.994809	-1.486357
H	-3.168785	-2.753738	-1.647383
H	-7.041077	-2.495376	-0.061195
H	-7.040585	-4.918379	0.579391
H	-3.705601	-8.431739	0.205286
H	-5.741444	-7.137592	0.723439
H	-1.893388	-4.936211	-1.660914
C	4.489784	-2.372012	1.167990
N	5.405251	-1.437915	0.868610
C	6.581836	-1.800078	0.258945
C	6.843414	-3.121635	-0.071752
C	5.115724	-6.450396	0.192860
C	6.074259	-5.509770	-0.124803
C	5.894791	-4.134627	0.210357
C	4.665672	-3.753532	0.869646
C	3.699198	-4.732486	1.205385
C	3.906704	-6.091239	0.892841
N	2.961348	-7.037228	1.210894
C	1.156375	-11.482290	0.071469
C	3.097753	-8.451214	1.185830
C	4.219178	-9.069936	1.727825
C	4.365866	-10.485297	1.699318
C	3.372680	-11.277733	1.157685
C	2.185311	-10.688983	0.614705
C	2.031610	-9.243256	0.613377
C	0.860611	-8.681603	0.061699
C	-0.167072	-9.479141	-0.484767
C	-0.015633	-10.925119	-0.475727
C	-1.053701	-11.752766	-1.012805
C	-2.191534	-11.189276	-1.556519
C	-2.343824	-9.774806	-1.595533
C	-1.375294	-8.931419	-1.061439
N	-1.533975	-7.520365	-1.100699
C	-3.996947	-3.273803	-1.141051
N	-5.090158	-2.546860	-0.863434
C	-6.171808	-3.137530	-0.257224
C	-6.155575	-4.479118	0.095142
C	-3.770916	-7.378767	-0.102028
C	-4.906481	-6.652978	0.194632
C	-5.013644	-5.275921	-0.162891
C	-3.884668	-4.657257	-0.821288
C	-2.733172	-5.419123	-1.135531
C	-2.656954	-6.786485	-0.801378
