178
cage_3-pyridine_amide1_2-7-napthaly.xyz
Pd	6.463138	-0.268487	-0.466424
Pd	-6.298593	0.286406	0.448113
H	-4.641214	-0.914025	-1.764154
H	-8.415487	-1.714357	-0.126509
H	-8.806006	-3.581690	-1.774647
H	-7.013181	-4.142536	-3.468455
H	-3.804494	-2.205448	-3.531185
H	0.471296	-2.781219	-4.033151
H	-1.969859	-3.041346	-3.841534
H	-4.283075	-4.750302	-7.104642
H	-2.190905	-5.005186	-8.459494
H	0.298730	-4.740553	-8.663500
H	2.464365	-4.061361	-7.678817
H	3.634365	-3.211787	-5.961825
H	4.127257	-1.272624	-2.006023
H	8.288226	-1.366442	-2.671254
H	7.960831	-2.591293	-4.842478
H	5.652846	-3.157964	-5.603418
C	-5.543416	-1.545493	-1.791856
N	-6.512476	-1.260540	-0.894688
C	-7.661291	-1.978693	-0.881896
C	-7.862089	-3.017689	-1.799064
C	-6.876161	-3.337464	-2.734563
C	-5.667159	-2.589979	-2.741408
N	-4.613797	-2.824900	-3.611332
O	-5.538462	-4.447468	-4.965110
C	-4.571507	-3.759554	-4.671898
C	0.422670	-3.206775	-5.041991
C	-0.830958	-3.591313	-5.598987
C	-2.044793	-3.438385	-4.867322
C	-3.268840	-3.835751	-5.408431
C	-3.311009	-4.420100	-6.711583
C	-2.150690	-4.565010	-7.451854
C	-0.889887	-4.160377	-6.923888
C	0.328048	-4.310767	-7.651448
C	1.536283	-3.930562	-7.098914
C	1.595052	-3.375486	-5.781476
N	2.878137	-3.029387	-5.299329
O	2.404877	-2.178272	-3.207105
C	3.211112	-2.480757	-4.090880
C	4.692335	-2.234810	-3.850501
C	4.975088	-1.560829	-2.647655
N	6.229731	-1.264959	-2.251872
C	7.281088	-1.626845	-3.029735
C	7.088531	-2.305381	-4.237428
C	5.784660	-2.614536	-4.654602
H	-4.465735	-1.913354	1.397403
H	-8.108711	-0.318602	2.717133
H	-8.225147	-1.979000	4.611213
H	-6.355538	-3.655579	4.912308
H	-3.432901	-3.662946	2.564966
H	0.904418	-4.036000	2.664195
H	-1.495447	-3.917468	3.203319
H	-3.523267	-7.288681	5.058419
H	-1.386088	-8.596079	5.028195
H	1.061224	-8.726373	4.475121
H	3.113573	-7.662945	3.587681
H	4.140610	-5.885580	2.676014
H	4.298236	-1.896190	0.758902
H	8.470493	-2.400342	0.440692
H	8.349860	-4.578755	1.689979
H	6.138645	-5.426964	2.481077
C	-5.271726	-1.952617	2.147927
N	-6.279326	-1.064962	2.003434
C	-7.318159	-1.066984	2.872566
C	-7.366309	-1.990609	3.923603
C	-6.336443	-2.916246	4.100920
C	-5.240601	-2.905698	3.196002
N	-4.153909	-3.761151	3.282924
O	-4.846326	-5.159603	4.982421
C	-3.976473	-4.833415	4.187824
C	0.926583	-5.057439	3.060245
C	-0.261909	-5.659298	3.564740
C	-1.501477	-4.955656	3.573687
C	-2.659092	-5.540566	4.090113
C	-2.604371	-6.861045	4.632516
C	-1.418804	-7.575037	4.619435
C	-0.224712	-7.002043	4.091959
C	1.018700	-7.701326	4.078734
C	2.162854	-7.105086	3.583480
C	2.127252	-5.769606	3.071195
N	3.351389	-5.240679	2.600877
O	2.727543	-3.147429	1.855789
C	3.587707	-4.010318	2.050685
C	5.026318	-3.715854	1.656308
C	5.194629	-2.504308	0.960086
N	6.397527	-2.061115	0.542507
C	7.508627	-2.796810	0.798478
C	7.430572	-4.009307	1.491280
C	6.180659	-4.476347	1.926378
H	-4.250610	1.293266	2.414819
H	-8.103922	2.489152	1.284532
H	-8.086023	4.366762	2.965991
H	-6.039244	4.723671	4.411279
H	-3.058241	2.484244	4.044759
H	1.280548	2.699429	3.923495
H	-1.130742	3.174748	4.084079
H	-2.806261	4.959093	7.679035
H	-0.532454	4.983969	8.731383
H	1.928492	4.496419	8.576763
H	3.866180	3.669662	7.280480
H	4.706394	2.788227	5.393125
H	4.465311	0.885455	1.403482
H	8.676153	0.700846	1.425421
H	8.766164	1.949269	3.605563
H	6.641868	2.671510	4.703277
C	-5.071528	2.013874	2.558800
N	-6.173030	1.837895	1.797144
C	-7.234234	2.668534	1.933032
C	-7.208199	3.710973	2.867303
C	-6.081725	3.919431	3.665247
C	-4.963777	3.055251	3.513367
N	-3.786776	3.175170	4.235330
O	-4.364970	4.845922	5.717900
C	-3.515010	4.080037	5.287737
C	1.410601	3.092018	4.938180
C	0.286199	3.562247	5.675717
C	-1.025739	3.539703	5.119153
C	-2.122135	4.021370	5.836695
C	-1.931396	4.560856	7.145505
C	-0.671614	4.578303	7.718098
C	0.462428	4.085641	7.008568
C	1.777674	4.103201	7.560563
C	2.858586	3.640958	6.834193
C	2.684146	3.132380	5.508500
N	3.851715	2.697242	4.840609
O	3.015614	1.946237	2.824510
C	3.961790	2.159738	3.587082
C	5.368609	1.807784	3.129852
C	5.418589	1.115101	1.905734
N	6.575544	0.735291	1.326578
C	7.754993	1.027749	1.930625
C	7.794413	1.719685	3.145542
C	6.593148	2.115846	3.753530
H	-4.437860	2.305777	-0.785456
H	-8.377200	1.080193	-1.522107
H	-8.623337	2.766728	-3.379078
H	-6.672049	4.263775	-3.967913
H	-3.438290	3.971485	-2.095050
H	0.854336	3.970704	-2.812323
H	-1.599354	4.063523	-3.001879
H	-3.571090	7.605114	-4.579669
H	-1.346233	8.720215	-4.868883
H	1.156957	8.634121	-4.674064
H	3.214510	7.393854	-4.078379
H	4.202859	5.534232	-3.299085
H	4.292533	1.541052	-1.386722
H	8.495853	1.691864	-1.663416
H	8.382525	3.875217	-2.903812
H	6.159896	4.907333	-3.385628
C	-5.342213	2.430369	-1.401949
N	-6.396132	1.640956	-1.100565
C	-7.551304	1.750815	-1.799562
C	-7.672158	2.688416	-2.832456
C	-6.598612	3.515532	-3.167959
C	-5.382358	3.390002	-2.443571
N	-4.246017	4.141657	-2.697689
O	-5.052058	5.607538	-4.286597
C	-4.107839	5.199433	-3.626250
C	0.908274	4.987571	-3.217044
C	-0.283531	5.692144	-3.552767
C	-1.568106	5.099552	-3.377362
C	-2.732580	5.785299	-3.727909
C	-2.641494	7.097385	-4.285754
C	-1.408846	7.704724	-4.449921
C	-0.205866	7.027968	-4.093246
C	1.082628	7.615832	-4.265032
C	2.229790	6.921060	-3.932005
C	2.152250	5.592818	-3.405649
N	3.380437	4.958924	-3.108003
O	2.692812	2.922544	-2.266947
C	3.586726	3.710499	-2.587464
C	5.036591	3.295082	-2.394726
C	5.199251	2.072633	-1.716528
N	6.407946	1.528604	-1.468249
C	7.529344	2.168819	-1.885207
C	7.456124	3.384983	-2.572152
C	6.200675	3.956059	-2.832205
