180
Coordinates from ORCA-job cage_L-5_dimethylquinone_orca_opt
  C   6.22351430227462      0.03004270251594     -3.60710319622651
  C   5.03382786671872      0.02416746508917     -4.37725733384713
  C   4.02531107355804      0.02398902433321     -5.08873295354634
  C   2.87205560248906      0.03524414745463     -5.92055238991439
  C   3.00479364279145      0.13019229871895     -7.34945666053256
  C   1.88244302843403      0.15853409953539     -8.15703773324469
  C   0.56964402144215      0.09791599874278     -7.60175053351758
  C   -0.60665431410294      0.13932302269924     -8.40802416461305
  C   -1.86693934986873      0.09143623642337     -7.83977927124257
  C   -2.01842041822565     -0.00360150799534     -6.41321694408681
  C   -3.30889307987232     -0.03258616193134     -5.81753392303697
  C   -4.42249371917648     -0.04791708277790     -5.28672736654292
  C   -5.70557789897399     -0.05487983943195     -4.68643531619760
  C   -6.90346876789892     -0.06657270726954     -5.45275976173956
  C   -8.13841227171034     -0.06983493826313     -4.80107113117078
  C   -8.18002495240886     -0.06231449200272     -3.40108175670029
  N   -7.04119812133443     -0.05206263988451     -2.66480906362646
  C   -5.83772409157464     -0.04804227058585     -3.27338035781870
  C   -0.87544888820878     -0.05440306458771     -5.60179705341067
  C   0.42658035233406     -0.00280592190471     -6.16708652270146
  C   1.59094948824415     -0.03642988262713     -5.35421304162081
  C   7.50890213372539      0.03861836538321     -4.21622861200304
  C   8.65221475477414      0.04860437704582     -3.41539622155337
  C   8.51753450497972      0.05049147100895     -2.02145145655696
  N   7.29551471461534      0.04313337083162     -1.43425538290354
  C   6.17709883680816      0.03251065840743     -2.18871330739177
  H   4.00942598116907      0.18327692982020     -7.79252552636789
  H   1.99694282931738      0.23462972405297     -9.24957185124231
  H   -0.50056113309612      0.21541570022233     -9.50131010148677
  H   -2.76478435236190      0.13008130682736     -8.47278534434819
  H   -6.84547942450538     -0.07250557349741     -6.55136410367728
  H   -9.07933705103665     -0.07863871762443     -5.37004893398929
  H   -9.13393364708415     -0.06573250832995     -2.85279507289757
  H   -4.94457004620322     -0.03954017356118     -2.62929483248674
  H   -0.98818397936972     -0.13579153198790     -4.50943647002302
  H   1.48058109967105     -0.11593663872212     -4.26218823613891
  H   7.59041005815764      0.03736180765703     -5.31334226378927
  H   9.65700034706970      0.05488244243455     -3.86225207251575
  H   9.39534480358776      0.05808975762698     -1.35825230073893
  H   5.21201363139367      0.02776312658897     -1.65795454218769
  C   6.05309259764225     -4.13155910105513      0.50578743715275
  C   4.83043168508657     -4.83900484682495      0.39879584112583
  C   3.77466579759915     -5.46993687054163      0.30052891294826
  C   2.55317562953451     -6.18706681475042      0.17900526514737
  C   2.54257405201123     -7.62488207821626      0.16724446270893
  C   1.34965408230509     -8.31551170181693      0.05215584018781
  C   0.10456274719418     -7.62735874939076     -0.05443698866565
  C   -1.14272078567797     -8.31102719099425     -0.16536001140423
  C   -2.33554464194839     -7.61707418479507     -0.25903690910718
  C   -2.34368229640881     -6.17906272780096     -0.24925955429575
  C   -3.56845997634510     -5.46164291981805     -0.33440827447167
  C   -4.63420123961796     -4.84414700901484     -0.41452194477686
  C   -5.88085040093033     -4.17767006375100     -0.51512298917109
  C   -7.10831648483532     -4.89095318900613     -0.60405748488270
  C   -8.31044659129943     -4.18695859780095     -0.69499157083864
  C   -8.29115131203582     -2.78648160563718     -0.69547681660156
  N   -7.12474004298319     -2.10038677375690     -0.61112416632053
  C   -5.95120261332751     -2.76027593893979     -0.52509327217616
  C   -1.12810820375040     -5.48711845170163     -0.14689048144110
  C   0.10631350878487     -6.18207987225490     -0.04597386053670
  C   1.34113100438460     -5.48977855409900      0.07018563699931
  C   7.30728104217945     -4.79545515749988      0.59782759553580
  C   8.47948283987853     -4.04341683395522      0.69754236850963
  C   8.40414939606506     -2.64493658900458      0.70325330364662
  N   7.21115156871981     -2.00593272651571      0.61671208697420
  C   6.06609095046364     -2.71233470474325      0.52238863104050
  H   3.49436852755899     -8.16830826537774      0.25127885940496
  H   1.35304566963382     -9.41661277183941      0.04397625225576
  H   -1.14816718578252     -9.41214817719170     -0.17269057813026
  H   -3.28888384913516     -8.15808244790311     -0.34076483091993
  H   -7.09885371976407     -5.99102208910182     -0.59964610132575
  H   -9.27239176223541     -4.71508092777187     -0.76593961508284
  H   -9.21835801313906     -2.19805281040357     -0.76334942992766
  H   -5.03478288505375     -2.15310944896016     -0.45837551810522
  H   -1.12679684250086     -4.38659375507307     -0.13865376820906
  H   1.34463457871577     -4.38851280736740      0.07408390932390
  H   7.34255100177542     -5.89499770762014      0.58961222611954
  H   9.46176678817084     -4.53252130154730      0.77014002642238
  H   9.30660897299557     -2.02018022265888      0.77907139562080
  H   5.12479091272256     -2.14458732508425      0.45616821759980
  C   5.70441089290735      0.03792947899356      4.68654991265648
  C   4.42128866458302      0.01866703536655      5.28659474581559
  C   3.30780244837687     -0.00299864981873      5.81740207352958
  C   2.01770234275526     -0.03724776925627      6.41366808883101
  C   1.86704778316349     -0.15199127563035      7.83888108574516
  C   0.60707693257755     -0.20469842420182      8.40744686274046
  C   -0.56975174676984     -0.14962244693119      7.60275308092512
  C   -1.88234716653764     -0.21601773725757      8.15793633763799
  C   -3.00520633140196     -0.17432308006586      7.35158167149262
  C   -2.87312595642241     -0.05906181084653      5.92412158423256
  C   -4.02630546025590     -0.03702991873295      5.09239972334858
  C   -5.03437716133922     -0.03012231611167      4.38034645924362
  C   -6.22328866026827     -0.03316444170488      3.60897619852691
  C   -7.50913881219703     -0.03967284196605      4.21715211837575
  C   -8.65188059185869     -0.04707275679991      3.41550323973329
  C   -8.51617221970513     -0.04852095904133      2.02168236268687
  N   -7.29374580947081     -0.04165409418673      1.43530362356828
  C   -6.17581756169621     -0.03335709290860      2.19055860273306
  C   -1.59228659193354      0.02055421214160      5.35832636782962
  C   -0.42744368516394     -0.02720085442566      6.16972466188093
  C   0.87423444374020      0.02972604972837      5.60417297921622
  C   6.90186166593311      0.05475372664499      5.45343585732176
  C   8.13703579005842      0.06927266084742      4.80235617182753
  C   8.17930226515796      0.06631433643721      3.40238219076270
  N   7.04091946149212      0.05027687289181      2.66556719775545
  C   5.83715563282053      0.03686340690169      3.27351775465663
  H   2.76525613703834     -0.20059372442957      8.47067660251817
  H   0.50171611117539     -0.29602477735875      9.49961279767058
  H   -1.99629584491855     -0.30701611827095      9.24936540132565
  H   -4.00963748916538     -0.23225771133671      7.79449612417114
  H   -7.59142480535158     -0.03808751617130      5.31420734964067
  H   -9.65701189066131     -0.05300393993849      3.86157732336632
  H   -9.39352286589844     -0.05354293947951      1.35788691822563
  H   -5.21022873458054     -0.02714961693072      1.66067183210805
  H   -1.48283322615766      0.11746627314494      4.26771044112833
  H   0.98620529626305      0.12613010618477      4.51297702041951
  H   6.84334673840801      0.05689055036963      6.55202872332215
  H   9.07763274756230      0.08250537205451      5.37178311195899
  H   9.13336496272626      0.07755766148586      2.85449232950763
  H   4.94438846252072      0.02321936004191      2.62891938849804
  C   5.87910015149263      4.17742463117272      0.54947069546280
  C   4.63044698540149      4.84348242086208      0.47399420641261
  C   3.56265712033197      5.45952051355061      0.41215565780897
  C   2.33608126226689      6.17603267485496      0.34745589377423
  C   2.32284944637686      7.61226387809070      0.41929690608758
  C   1.12788221071733      8.30552537437944      0.35175806235816
  C   -0.11659824139281      7.62292764268718      0.20732725073586
  C   -1.36402064118549      8.31060906971139      0.12877228521037
  C   -2.55441594491224      7.62127133950921     -0.01650595331121
  C   -2.56006696373433      6.18515131912446     -0.08844229894403
  C   -3.77944116595180      5.46941298918550     -0.23620686062986
  C   -4.83361207303558      4.83934843807225     -0.35498915509368
  C   -6.05467565061408      4.13214023519850     -0.47996008238093
  C   -7.30840836516097      4.79589231308036     -0.57904591750215
  C   -8.47909202362646      4.04378092913539     -0.69473151508799
  C   -8.40279757951901      2.64542004112162     -0.70860152286672
  N   -7.21029041483600      2.00649250842205     -0.61492363816853
  C   -6.06655037377395      2.71302882437329     -0.50622430743500
  C   -1.34553491875340      5.48822989991255     -0.00943992838862
  C   -0.11320514181110      6.17936729478222      0.13636774904093
  C   1.12336620129614      5.48494127441368      0.21104247719336
  C   7.10687407017503      4.89122222541174      0.62928474285400
  C   8.31078978795743      4.18779796326958      0.69832011140231
  C   8.29271995332576      2.78735984377783      0.68814067297452
  N   7.12581161320817      2.10081698862159      0.61526984742035
  C   5.95067814980384      2.76006215077836      0.54785042060389
  H   3.27381031620241      8.15222865546539      0.53009476268896
  H   1.12907705453103      9.40519512210516      0.40790410191315
  H   -1.37154461453787      9.41020710548196      0.18565420421186
  H   -3.50808441209460      8.16446671106889     -0.07804327314580
  H   -7.34456172424240      5.89531688659653     -0.56309040053172
  H   -9.46099718599459      4.53268719330714     -0.77352524432596
  H   -9.30413368661363      2.02071360273877     -0.79674215626822
  H   -5.12536617109736      2.14569209552999     -0.43549498308229
  H   -1.34452585274020      4.38831696603117     -0.06304823717721
  H   1.12609680202299      4.38588243441127      0.15392303985544
  H   7.09623247037747      5.99127646591602      0.63533303390178
  H   9.27317294209328      4.71631987610492      0.75964806527718
  H   9.22116714660141      2.19924270425255      0.74072128305547
  H   5.03385840269795      2.15242371019198      0.49105141071680
  Pd  7.15841542687535      0.04665230964507      0.61560294753840
  Pd  -7.15730282767593     -0.04604093058885     -0.61500892949231
  O   2.68968868201795      0.04246153259712      0.23940707996220
  C   1.45562966928895      0.02923569817263      0.12917957636826
  C   0.62156967389755     -0.87008630088495      0.95661243086282
  C   -0.73931180444766     -0.92048344731245      0.86665130965180
  C   -1.60180737168368     -1.81981506238903      1.69199744612316
  C   0.76161308735247      0.92964939475448     -0.86076298553094
  C   1.62410095375169      1.82727860419893     -1.68785351533852
  C   -0.59917583390709      0.87804623536005     -0.95185217942849
  C   -1.43352996235493     -0.01944942861720     -0.12254465404289
  O   -2.66731439956915     -0.03442633385338     -0.23419590561470
  H   1.17215851821381     -1.51232040532841      1.66370815942778
  H   -1.00635877355295     -2.44693945919838      2.38081395157285
  H   -2.21315072410950     -2.48139414299618      1.04266609007398
  H   -2.33152047975885     -1.22895057965128      2.28544508982332
  H   2.23686149898462      2.48897644134589     -1.03995282395001
  H   2.35261107920908      1.23670108762873     -2.28326041254159
  H   1.02856898285788      2.45452275791936     -2.37661008535610
  H   -1.14972133823585      1.51911963600030     -1.66004098529418
