130
cage_3-pyridine_amide2_carbonate.xyz
Pd	-7.243783	2.228950	-1.251739
Pd	2.388904	-0.731716	0.415126
H	1.748456	2.243158	1.037771
H	4.736793	0.200625	-1.102490
H	6.094773	2.281695	-1.375453
H	5.311253	4.404515	-0.213271
H	1.825710	6.045603	1.999063
H	-2.660712	6.465448	-1.124777
H	-4.647886	3.336326	-0.795119
H	-8.225318	5.041787	-2.204342
H	-7.101983	7.284655	-2.501855
H	-4.669989	7.532527	-1.939858
C	2.714268	2.291580	0.510978
N	3.192647	1.136669	-0.027111
C	4.378325	1.154562	-0.692411
C	5.141376	2.318266	-0.828799
C	4.697606	3.490235	-0.209983
C	3.459127	3.483402	0.463280
O	4.068964	5.131026	2.036632
C	3.169860	4.674158	1.349861
N	1.876126	5.153030	1.484517
O	1.019822	5.193105	0.365412
O	-1.034936	5.095124	-0.293371
C	-0.163221	4.528735	0.599575
O	-0.370858	3.677637	1.415853
O	-2.627791	3.409223	-0.229958
C	-2.313502	4.548283	-0.471633
N	-3.107560	5.552802	-0.990906
C	-4.460766	5.440498	-1.321715
C	-5.164128	4.225327	-1.179511
N	-6.473493	4.120871	-1.497283
C	-7.161975	5.186262	-1.963517
C	-6.526327	6.425444	-2.128175
C	-5.171887	6.560288	-1.811532
H	0.420150	-1.042379	2.790155
H	4.249467	0.613501	2.268338
H	4.560408	0.908233	4.731604
H	2.775116	0.000981	6.298727
H	-1.316893	-1.709121	6.264567
H	-5.067465	1.938389	4.590916
H	-5.492634	1.583270	0.910983
H	-9.227481	3.515368	0.798474
H	-9.179374	3.871266	3.298093
H	-7.207266	3.066507	4.623790
C	1.320554	-0.614618	3.258826
N	2.327287	-0.220499	2.431508
C	3.454737	0.318055	2.967073
C	3.629370	0.467030	4.346452
C	2.636938	-0.011907	5.206154
C	1.456973	-0.554280	4.656860
O	1.078265	-2.068232	6.423844
C	0.564047	-1.320838	5.607648
N	-0.813626	-1.270514	5.478436
O	-1.435227	-0.059131	5.116153
O	-3.129820	0.825652	4.107653
C	-2.235927	-0.208029	4.005503
O	-2.173365	-1.066699	3.173585
O	-3.809814	0.813171	1.889747
C	-4.000810	1.104191	3.044556
N	-5.078563	1.784648	3.577586
C	-6.183862	2.255266	2.863240
C	-6.291706	2.091816	1.465751
N	-7.363808	2.542853	0.777485
C	-8.380915	3.169325	1.409440
C	-8.340915	3.364637	2.797792
C	-7.241808	2.912370	3.533244
H	0.463078	-2.897597	-0.690348
H	3.180988	-2.655259	2.508701
H	2.994155	-5.105305	2.974909
H	1.612888	-6.540964	1.393907
H	-1.254114	-6.200094	-1.973286
H	-5.962150	-3.817706	-0.379054
H	-5.694070	-0.159208	-1.012489
H	-9.842561	0.522634	-0.897171
H	-10.287920	-1.924817	-0.461643
H	-8.360002	-3.520288	-0.288846
C	1.006133	-3.422991	0.111126
N	1.832233	-2.679368	0.896826
C	2.517227	-3.286819	1.901871
C	2.420911	-4.659973	2.148476
C	1.641158	-5.444324	1.293940
C	0.910940	-4.817626	0.263536
O	1.009961	-6.647271	-1.219860
C	0.330799	-5.725630	-0.798203
N	-0.897544	-5.441551	-1.371997
O	-1.940405	-4.915664	-0.583848
O	-3.692409	-3.651082	-0.571054
C	-2.432859	-3.739013	-1.103791
O	-1.879236	-2.987007	-1.852950
O	-3.993674	-1.383293	-0.961378
C	-4.444404	-2.479012	-0.735776
N	-5.769371	-2.827502	-0.560007
C	-6.861701	-1.958945	-0.637286
C	-6.699911	-0.578093	-0.880341
N	-7.758582	0.257928	-0.963136
C	-9.020409	-0.203747	-0.818578
C	-9.255119	-1.564888	-0.576147
C	-8.178447	-2.450664	-0.481011
H	1.778040	0.376087	-2.414460
H	3.676987	-3.050186	-0.884219
H	4.508831	-3.712846	-3.146036
H	4.106596	-2.134344	-5.099126
H	1.853533	1.542343	-6.163430
H	-3.574879	0.719817	-6.071616
H	-4.856490	1.588000	-2.687368
H	-8.843527	2.072551	-3.933030
H	-8.222998	1.516895	-6.317970
H	-5.839406	0.966796	-6.878087
C	2.384123	-0.521149	-2.616925
N	2.693098	-1.318941	-1.558063
C	3.435870	-2.438574	-1.764511
C	3.913422	-2.795394	-3.029431
C	3.669988	-1.939858	-4.107460
C	2.884342	-0.787214	-3.903558
O	3.960049	0.501939	-5.558661
C	2.901022	0.242627	-5.011164
N	1.764526	0.979116	-5.303899
O	0.503867	0.350357	-5.263889
O	-1.608935	0.636111	-4.911887
C	-0.378537	1.023447	-4.448592
O	-0.115398	1.784864	-3.562953
O	-2.813603	1.239832	-3.023407
C	-2.766341	0.985167	-4.201438
N	-3.813473	0.950340	-5.101919
C	-5.151442	1.234364	-4.815085
C	-5.580983	1.558566	-3.510769
N	-6.873573	1.843435	-3.238222
C	-7.807786	1.832375	-4.214513
C	-7.451119	1.520031	-5.534456
C	-6.122291	1.216945	-5.843188
