228
Coordinates from ORCA-job cage_L-3_naphthalene-1,4-dione_orca_opt
  C   -2.46967894230095     -7.93818584946433      2.48533634081378
  C   -3.70816845186307     -7.28119729280695      2.24300071389480
  C   -4.79690258970026     -6.73202680215148      2.04880870143607
  C   -6.05743482264494     -6.11836384863264      1.82708828178698
  C   -7.25775322585918     -6.82402092598527      2.03805157928570
  C   -8.52160386065640     -6.22481146357538      1.82344198189676
  C   -8.62593967635831     -4.90731147514385      1.39489769639202
  C   -7.44017246257784     -4.15078945970624      1.17046543386323
  C   -6.14424382385731     -4.74648034886601      1.38246026119794
  C   -5.00486877930033     -3.93517116187562      1.13968535373107
  C   -5.14903046083560     -2.62607867617393      0.71737344745424
  N   -6.38903658268212     -2.06663054750038      0.52178248359330
  C   -7.48701563606207     -2.79789260814728      0.73837081322053
  C   -1.25058164966709     -7.27835464757502      2.26145728783078
  C   -0.00791193643325     -7.92210217013646      2.51118249251323
  C   1.23228553541393     -7.26095512512668      2.29685134583013
  C   2.45374373878585     -7.90374542101560      2.55555274104412
  C   3.68887153017884     -7.22816275627033      2.35055322715037
  C   4.77224283287360     -6.65940376711355      2.18487388658028
  C   6.02993634310093     -6.02856592115525      1.99878153307292
  C   6.11058821757370     -4.66164181926520      1.53785067109673
  C   4.96818695054591     -3.87578002224476      1.23196164151066
  C   5.10731970406705     -2.56902876091845      0.80050375297636
  N   6.34364644963292     -1.98618356732174      0.65794785829562
  C   7.44460663361184     -2.69464396985755      0.93098892941467
  C   7.40360038323219     -4.04416048989318      1.37344542956411
  C   8.59266270335041     -4.77697513110315      1.65417591888889
  C   8.49410303449821     -6.09232634070410      2.09033422453335
  C   7.23328255675918     -6.71112939261305      2.26309248272040
  C   2.44292507459468     -9.25737529832918      3.03974440730835
  C   1.24595271347735     -9.91843401205834      3.25203211903303
  C   -0.00528451310491     -9.28153299282918      3.00079956705952
  C   -1.25416878706305     -9.93571126359882      3.21722609382246
  C   -2.45372074569539     -9.29129146969248      2.97077372970838
  H   -7.20437687513141     -7.86748444015772      2.37966336435901
  H   -9.43066190357391     -6.81807336795229      2.00192560851199
  H   -9.61042227971251     -4.44483638597794      1.22923924544915
  H   -4.00011393543241     -4.35551437132038      1.29097135972002
  H   -4.28353005436001     -1.97582229728074      0.51933543916012
  H   -8.46089201946581     -2.31091285473817      0.57004730322962
  H   -1.25189173250946     -6.24325114759437      1.88890978203713
  H   1.23019780592310     -6.22596452890318      1.92401105931543
  H   3.96532510446206     -4.31352457714060      1.34203727290266
  H   4.23878697302185     -1.94053478229036      0.55020479525955
  H   8.41603082088595     -2.19030167143257      0.80376350684119
  H   9.57508456583711     -4.29856492783335      1.52427065591545
  H   9.40569241637514     -6.66752834672625      2.31076251775582
  H   7.18481767592351     -7.75200520789606      2.61319451060641
  H   3.39939119073788     -9.75975850759666      3.24143303412531
  H   1.24984928402144    -10.95382143404336      3.62450891293687
  H   -1.25442993348846    -10.97093149633599      3.59002876118510
  H   -3.40840204986402     -9.80703686243995      3.14536929254886
  C   -2.55608402363926      2.39617283619576      7.80742474400516
  C   -3.78688393288602      2.16548998333983      7.13135913546203
  C   -4.87028439722798      1.98285600276486      6.56779162246208
  C   -6.12588194972966      1.77666124122556      5.93864488927422
  C   -7.33309391816475      1.99476871191737      6.63039552797671
  C   -8.59114995947895      1.79541331842758      6.01397268278152
  C   -8.68347071724135      1.37644757136533      4.69240711629654
  C   -7.49056514874893      1.14415027654015      3.94968710375387
  C   -6.20038518146902      1.33917684617520      4.56388646061020
  C   -5.05303514621320      1.08789358508285      3.76648142862908
  C   -5.18465091635206      0.67609097279598      2.45270372539353
  N   -6.41893044705864      0.49756072916628      1.87500609298479
  C   -7.52413310316377      0.72077401059272      2.59341700212449
  C   -1.32813224820726      2.15573397449166      7.17147465359181
  C   -0.09467258476359      2.39261875231170      7.83836096571739
  C   1.15628989562174      2.15887001893302      7.20376741371096
  C   2.36681521678441      2.40361990624537      7.87078279146165
  C   3.61473496336460      2.17965086314103      7.22446528379905
  C   4.71029004012480      2.01163388591761      6.68031125560395
  C   5.97701869993701      1.85743540874137      6.05865593401020
  C   6.07475238507915      1.42232771955338      4.68475235256337
  C   4.94158455513016      1.11950897930692      3.88579199795175
  C   5.09328177255921      0.71231711478412      2.57301513164876
  N   6.33552132526768      0.58650676810139      1.99872725245225
  C   7.42821165233672      0.85950989368761      2.71827619177241
  C   7.37311256070666      1.28451970876567      4.07340736745052
  C   8.55180704717343      1.56887537115070      4.81938267509418
  C   8.43755843655080      1.98204694487316      6.14099048810985
  C   7.17078834499922      2.12517308561705      6.75468973211331
  C   2.33504458914620      2.89373160209170      9.22247949340234
  C   1.12830764395599      3.12483053698661      9.85781270717675
  C   -0.11293130060304      2.88708966829168      9.19639592233374
  C   -1.37148152628155      3.12073501674543      9.82591006594453
  C   -2.56071851088633      2.88561610737112      9.15990031176048
  H   -7.28985412350352      2.32863791647955      7.67685262262125
  H   -9.50584495694025      1.97927594994981      6.59684317045556
  H   -9.66381492778889      1.22331894549171      4.21693494774361
  H   -4.05175742086666      1.22372385092951      4.20052498274705
  H   -4.31219218535812      0.47662951047879      1.81184009810803
  H   -8.49335892652949      0.56544583027051      2.09293772073328
  H   -1.31442789267673      1.77750109920564      6.13827340400893
  H   1.16998194097842      1.78061494933740      6.17058627335300
  H   3.93499345349910      1.21162544243138      4.31862212213864
  H   4.23295609864588      0.47664694347458      1.92788976810701
  H   8.40423831198320      0.74642169077241      2.21939046186040
  H   9.53901158270537      1.46085151394941      4.34600651724185
  H   9.34128410389159      2.20430495024412      6.72659500233511
  H   7.11031552458825      2.45444009010497      7.80162375071671
  H   3.28395165112853      3.08317233593802      9.74363365422798
  H   1.11591534439889      3.50031381506827     10.89196872195508
  H   -1.38668953759086      3.49551302993775     10.86028386835260
  H   -3.52339779741448      3.07204337455320      9.65634347281179
  C   -2.50360153420882      7.76253486300092     -2.56201936640591
  C   -3.74070202128068      7.09748260618177     -2.33297262403284
  C   -4.82829520524114      6.54215648032367     -2.14957068371054
  C   -6.08904469689063      5.91637410835552     -1.96441303211548
  C   -7.29075060480499      6.61291849927332     -2.19681151230214
  C   -8.55341725787677      6.00022803405348     -2.01567742678290
  C   -8.65569616187565      4.67898533589171     -1.59801372440456
  C   -7.46858768907275      3.93131391749497     -1.35225276756494
  C   -6.17397327285915      4.54047364828098     -1.53259980555063
  C   -5.03222202747000      3.73743106463523     -1.27436098397720
  C   -5.17266047461927      2.42433987371820     -0.86404078433643
  N   -6.41136548834581      1.85359997851696     -0.69357823587183
  C   -7.51202107427723      2.57546565655842     -0.92752416778016
  C   -1.28186089059910      7.11987031485060     -2.30623371946258
  C   -0.04173142044457      7.77536882925865     -2.53987572300078
  C   1.20254610110989      7.13334932764091     -2.29165486373754
  C   2.42022898633678      7.78907126006125     -2.53301344402448
  C   3.66133565667921      7.13544548428840     -2.29301875550109
  C   4.75382252947200      6.59127491934460     -2.10585212314561
  C   6.01549262090056      5.97110159547201     -1.90891118613105
  C   6.10175846997451      4.60219696597338     -1.45490113528992
  C   4.96087697512768      3.80370238408894     -1.17843286187298
  C   5.10291752317411      2.49700050050711     -0.74892493247531
  N   6.34229304649202      1.92690793837011     -0.57781666011141
  C   7.44168652867373      2.64611169580569     -0.82657394836417
  C   7.39698390028609      3.99624825938007     -1.26859975803064
  C   8.58348331506158      4.74077454302313     -1.52767832654002
  C   8.48004053122318      6.05608874972701     -1.96325543209207
  C   7.21661232071879      6.66508187871197     -2.15255189620911
  C   2.40228655037663      9.13543292422608     -3.03781093813117
  C   1.20193510103372      9.77758528832742     -3.28415333216537
  C   -0.04598583803922      9.12819551594600     -3.04842055456431
  C   -1.29798569832566      9.76453175842428     -3.29787658622031
  C   -2.49415034455063      9.10953261524945     -3.06537500810387
  H   -7.23947902852698      7.65971698113196     -2.52841557124770
  H   -9.46366303850492      6.58655982326561     -2.21028283175654
  H   -9.63960656184421      4.20687389887811     -1.45759661028625
  H   -4.02809377448796      4.16640361850200     -1.40538013741203
  H   -4.30742737534224      1.77591323648163     -0.65648644011115
  H   -8.48468243044675      2.07923529009886     -0.78001870445035
  H   -1.27850598765385      6.08970425653049     -1.91996072511507
  H   1.20569569321919      6.10208410659354     -1.90829831946658
  H   3.95633706400683      4.23168143877610     -1.30954517658231
  H   4.23768763418289      1.85488623582648     -0.52489445864488
  H   8.41494792140381      2.15121916744960     -0.67792495424477
  H   9.56775171608616      4.27084265961564     -1.38213455052797
  H   9.38970595530724      6.64015773919814     -2.16772472528042
  H   7.16409830545411      7.70675077709670     -2.49980132247947
  H   3.35640102831883      9.64750460344801     -3.22607782535648
  H   1.20036243232311     10.80771897406743     -3.67068388850550
  H   -1.30282667613736     10.79454976766570     -3.68465284421469
  H   -3.45143711929135      9.61166998097059     -3.26361788158405
  C   -2.41724216567677     -2.50568577997660     -7.93853268608996
  C   -3.66246458733117     -2.28694822687160     -7.28588606991266
  C   -4.75547036684600     -2.11583327647859     -6.73738965218413
  C   -6.02084475592955     -1.93571990166940     -6.11999197635460
  C   -7.21632715437352     -2.16316371158944     -6.82868436614997
  C   -8.48430716265127     -1.99101571667731     -6.22460261148890
  C   -8.59760090232622     -1.58931484670558     -4.89938800017960
  C   -7.41697639853211     -1.34806019715563     -4.13995833013143
  C   -6.11692887162131     -1.51721307182684     -4.74035890286533
  C   -4.98270820701737     -1.26085837853665     -3.92613272885228
  C   -5.13471922424811     -0.86687990037245     -2.60912381292131
  N   -6.37877183104633     -0.70811771520242     -2.04670143887745
  C   -7.47258533723519     -0.93849474862654     -2.78024004680570
  C   -1.20546686650125     -2.26076363862122     -7.27263080135033
  C   0.04462081463016     -2.48952473604664     -7.90980469220268
  C   1.27759538909635     -2.25532838993514     -7.24195006580314
  C   2.50642474474016     -2.49528028085096     -7.87769251320056
  C   3.73475294241123     -2.27154475973431     -7.19531798690237
  C   4.81416215810668     -2.09909130625257     -6.62101312241947
  C   6.06711825593731     -1.91051456021679     -5.98118769693215
  C   6.13878342692730     -1.47880125592647     -4.60429594269921
  C   4.99070948208934     -1.21526485723209     -3.81227354144744
  C   5.12049012443325     -0.80821445920800     -2.49688490330539
  N   6.35423769416103     -0.64414832667644     -1.91379304000227
  C   7.46022191179030     -0.88096299639112     -2.62651615586084
  C   7.42810688595185     -1.30275784900535     -3.98307860329505
  C   8.62201991400863     -1.54976034187361     -4.71925871609630
  C   8.53229664610267     -1.96424290882485     -6.04230651251344
  C   7.27514901388542     -2.14388216004609     -6.66634122979991
  C   2.51086429854402     -2.97892989803214     -9.23150815893850
  C   1.32108654632944     -3.21008130982980     -9.89921391435315
  C   0.06249648998873     -2.97865203722233     -9.26930101988655
  C   -1.17923078706128     -3.21547069428537     -9.92998020354669
  C   -2.38616255489497     -2.98923502969460     -9.29197506728169
  H   -7.15571068176225     -2.48444814573617     -7.87827559018304
  H   -9.38935828492371     -2.18179391154683     -6.82019762881373
  H   -9.58534569374428     -1.45656503517596     -4.43309263922016
  H   -3.97525961302624     -1.37930370722522     -4.35076147991719
  H   -4.27457100571102     -0.66351773440470     -1.95296876586933
  H   -8.44955139952062     -0.79945316196525     -2.29011699107887
  H   -1.21875771920063     -1.88691988278857     -6.23809606241162
  H   1.26386239991951     -1.88128377753079     -6.20746547168913
  H   3.99068311682328     -1.33807054256206     -4.25280877228245
  H   4.24842099008569     -0.59916939447503     -1.85882325017016
  H   8.42865269386600     -0.73921732391971     -2.12056774714337
  H   9.60136208413441     -1.41146542886045     -4.23711992551772
  H   9.44767814211471     -2.16049568634903     -6.61955038585921
  H   7.23264507201654     -2.47530838404208     -7.71356262094520
  H   3.47324076215395     -3.16508878350718     -9.72863411543760
  H   1.33670296021468     -3.58144128476053    -10.93479612076333
  H   -1.16781803076485     -3.58615148045525    -10.96587338028115
  H   -3.33508613162988     -3.17986750542032     -9.81257346927842
  Pd  6.40047708780355     -0.02948081068106      0.04256490326298
  Pd  -6.45727367471607     -0.10683622324348     -0.08642432381518
  O   2.68106339368719      0.05201282240123      0.13576953112884
  C   1.43328662216785      0.08802735777937      0.12104866263931
  C   0.66361649101208     -0.98366583783222     -0.54161206765499
  C   -0.69759843430560     -0.97562419926244     -0.59522804974236
  C   0.65775711584508      1.18946922697585      0.75376177906762
  C   -0.76629914836430      1.20542901074256      0.68694382616470
  C   -1.47388831566288      2.26938605776775      1.28099124089013
  C   -0.79308677600795      3.29926764063830      1.94456032438075
  C   0.61232040981226      3.27709072586109      2.02119635341629
  C   1.32934489069348      2.22997928353369      1.42658626842373
  C   -1.50292176677446      0.10503351372243      0.00616675860628
  O   -2.74958929191273      0.07347992295484     -0.05680744878249
  H   1.25269186272728     -1.79648322932293     -0.99605676498726
  H   -1.26061562635758     -1.78187604401829     -1.09413697987431
  H   -2.57227160679205      2.28063277938629      1.21413554460064
  H   -1.35629984839451      4.12423605002617      2.40709698887281
  H   1.14765461453936      4.08279824924811      2.54694520358893
  H   2.42813814832730      2.20470318707190      1.47756932347785
