274
cage_7-isoquinoline_1-4-napythyl_carbonate.xyz
Pd	9.038633	0.386561	1.046345
Pd	-8.630189	-0.370876	-0.946437
H	-7.009485	0.065594	1.513530
H	-10.634238	-1.887951	0.716922
H	-10.832822	-2.689268	3.078711
H	-7.858004	-2.295969	6.932092
H	-9.760378	-2.851748	5.432999
H	-5.926727	-0.044456	3.767168
H	-3.206119	-2.729909	8.017566
H	-5.345453	-2.995457	6.738367
H	-6.709571	1.552678	5.658152
H	-5.772972	3.790555	6.146668
H	-3.605685	4.021560	7.396472
H	-2.397519	1.986811	8.180099
H	3.356693	1.310806	5.571956
H	0.984783	0.996343	6.242315
H	1.163039	-1.376545	10.414979
H	2.977496	-2.350510	11.824747
H	5.370939	-2.192129	11.074914
H	5.952510	-1.033470	8.970720
H	6.804789	-0.122504	2.889915
H	10.637613	1.505511	3.385997
H	10.237928	1.945691	5.816047
H	6.321800	1.322752	8.662523
H	8.584001	1.871927	7.815712
H	5.167599	-0.228301	4.776924
C	-7.834772	-0.555004	1.898323
N	-8.802166	-0.890118	1.035181
C	-9.868584	-1.645202	1.467159
C	-9.963536	-2.086953	2.775457
C	-7.857901	-1.931140	5.893859
C	-8.922038	-2.243750	5.060071
C	-8.937189	-1.783428	3.713582
C	-7.834442	-0.972993	3.255046
C	-6.769651	-0.646501	4.139262
C	-6.754879	-1.125249	5.452619
C	-3.728039	-1.848953	7.619172
C	-4.941279	-1.985057	6.904230
C	-5.587681	-0.881472	6.341292
C	-5.068015	0.443511	6.582404
C	-5.741000	1.633659	6.171883
C	-5.220916	2.889643	6.453476
C	-3.999684	3.021447	7.162901
C	-3.321627	1.891079	7.592580
C	-3.833753	0.589323	7.321058
C	-3.176514	-0.591346	7.783407
O	-1.963162	-0.457896	8.462141
O	0.193730	-0.225234	8.531121
C	-0.847658	-0.429044	7.681992
O	-0.811239	-0.563546	6.483848
C	3.135461	0.743680	6.488976
C	1.785007	0.590394	6.871214
C	1.489859	-0.074595	8.052794
C	2.519690	-0.606367	8.893867
C	2.214483	-1.288772	10.107709
C	3.224890	-1.832652	10.886477
C	4.576185	-1.734463	10.467347
C	4.901670	-1.071161	9.291677
C	3.898972	-0.459021	8.481354
C	4.193648	0.249714	7.258275
C	7.534985	0.345787	3.569640
N	8.726073	0.676828	3.054130
C	9.680464	1.248386	3.860911
C	9.444615	1.490976	5.204278
C	6.579408	1.088043	7.619102
C	7.843549	1.408569	7.146139
C	8.186663	1.168038	5.784910
C	7.190872	0.574029	4.926672
C	5.908301	0.242040	5.441722
C	5.575701	0.498589	6.775598
H	-6.781457	1.947010	-1.106223
H	-10.715511	1.455484	0.262184
H	-10.850728	3.834890	1.020648
H	-7.568429	7.451801	1.068497
H	-9.638556	6.105185	1.338757
H	-5.558852	4.115581	-0.839620
H	-2.978911	8.242103	2.176851
H	-5.216043	7.112964	2.133693
H	-5.946325	5.999132	-2.550010
H	-4.651898	6.367850	-4.627575
H	-2.397388	7.473977	-4.546171
H	-1.460894	8.232826	-2.365189
H	3.942149	5.266031	-0.762057
H	1.600420	6.093191	-0.830104
H	1.698557	10.324519	1.440539
H	3.435685	11.649694	2.647858
H	5.771504	10.748717	2.869426
H	6.379001	8.577387	1.861287
H	6.917943	2.414580	1.242923
H	10.973259	2.579006	0.187700
H	10.828268	5.016947	-0.355305
H	7.086453	8.151763	-0.395218
H	9.335737	7.130303	-0.576233
H	5.430907	4.415989	1.065365
C	-7.660219	2.401439	-0.621224
N	-8.732700	1.619432	-0.441138
C	-9.865460	2.141316	0.139739
C	-9.924941	3.458723	0.560482
C	-7.589973	6.409762	0.715685
C	-8.748297	5.661396	0.867863
C	-8.795067	4.312242	0.417333
C	-7.619222	3.759746	-0.210815
C	-6.453280	4.557317	-0.374581
C	-6.413710	5.875208	0.090200
C	-3.387611	7.855409	1.233096
C	-4.653445	7.224646	1.194036
C	-5.163093	6.676054	0.014265
C	-4.433960	6.848187	-1.219927
C	-4.945400	6.449788	-2.491729
C	-4.223947	6.664485	-3.658279
C	-2.952553	7.292031	-3.614143
C	-2.425405	7.706957	-2.400795
C	-3.144193	7.501508	-1.187620
C	-2.642099	7.950287	0.072056
O	-1.378997	8.544813	0.116878
O	0.788386	8.466754	0.206846
C	-0.326805	7.691868	0.254847
O	-0.392976	6.495541	0.395432
C	3.700805	6.215440	-0.260558
C	2.371008	6.685726	-0.324426
C	2.058336	7.904732	0.260046
C	3.050773	8.697746	0.921777
C	2.728259	9.949802	1.521736
C	3.694993	10.681587	2.195066
C	5.014930	10.176603	2.311796
C	5.357400	8.962182	1.732666
C	4.405971	8.195453	0.995471
C	4.721619	6.932817	0.370691
C	7.757937	3.024422	0.873027
N	8.940746	2.413011	0.728587
C	10.027737	3.130401	0.291482
C	9.932855	4.479109	-0.009965
C	7.228181	7.101880	-0.098449
C	8.487518	6.531155	-0.212229
C	8.688663	5.158769	0.109542
C	7.555138	4.394634	0.569433
C	6.279783	5.009492	0.692953
C	6.088053	6.351637	0.351765
H	-6.439263	-0.582039	-2.949153
H	-10.356936	0.910103	-3.059366
H	-10.101589	1.677283	-5.426107
H	-6.307632	1.611533	-8.501286
H	-8.548229	1.953248	-7.483833
H	-4.890701	-0.349112	-4.901158
H	-1.617273	2.556079	-8.599659
H	-4.002298	2.594868	-7.830003
H	-5.043056	-2.052532	-6.805196
H	-3.779273	-4.173299	-6.970803
H	-1.385072	-4.175737	-7.733224
H	-0.275003	-2.033000	-8.353314
H	4.601609	-0.934460	-4.611454
H	2.419447	-0.777841	-5.788218
H	3.350514	1.612381	-9.848217
H	5.365837	2.699189	-10.844992
H	7.547971	2.676100	-9.599216
H	7.730457	1.550689	-7.407882
H	7.262825	0.760997	-1.266657
H	11.205919	-0.606054	-0.860696
H	11.387859	-1.095706	-3.306713
H	8.169153	-0.772731	-6.964288
H	10.216875	-1.160404	-5.623543
H	6.086965	0.746443	-3.474388
C	-7.221542	-0.066954	-3.530037
N	-8.395341	0.145468	-2.922034
C	-9.415598	0.762850	-3.607393
C	-9.259154	1.187535	-4.915327
C	-6.498365	1.264744	-7.474515
C	-7.751114	1.456139	-6.910493
C	-8.017028	1.008957	-5.585980
C	-6.959407	0.343935	-4.863286
C	-5.691509	0.142825	-5.473948
C	-5.437759	0.602807	-6.769250
C	-2.111422	1.629769	-8.275218
C	-3.459865	1.636946	-7.846833
C	-4.084603	0.480332	-7.372458
C	-3.378260	-0.778209	-7.425126
C	-3.985273	-2.029732	-7.103201
C	-3.279521	-3.221050	-7.203891
C	-1.928593	-3.224160	-7.636383
C	-1.305238	-2.031674	-7.970941
C	-2.004662	-0.793794	-7.875969
C	-1.397831	0.445493	-8.245956
O	-0.056728	0.448200	-8.634510
O	2.072019	0.396194	-8.212818
C	0.852587	0.484516	-7.621395
O	0.603620	0.581446	-6.444861
C	4.552011	-0.386329	-5.564328
C	3.310130	-0.321033	-6.233372
C	3.237601	0.325656	-7.459110
C	4.390608	0.923571	-8.062940
C	4.314292	1.588693	-9.321413
C	5.434763	2.194070	-9.870575
C	6.667931	2.173919	-9.170496
C	6.771319	1.529450	-7.944973
C	5.654399	0.860668	-7.360318
C	5.719194	0.174258	-6.091767
C	8.155169	0.338733	-1.755876
N	9.218873	0.090958	-0.980198
C	10.364263	-0.419099	-1.542282
C	10.450525	-0.689659	-2.898040
C	8.174047	-0.508646	-5.896294
C	9.319028	-0.737996	-5.147304
C	9.335496	-0.458671	-3.751097
C	8.138821	0.077084	-3.149762
C	6.984979	0.317379	-3.944746
C	6.973445	0.022278	-5.311378
H	-6.660372	-2.525190	-0.383338
H	-10.241814	-2.349573	-2.558262
H	-10.008575	-4.719580	-3.320422
H	-6.493180	-8.044762	-2.655574
H	-8.567532	-6.875436	-3.362866
H	-5.223529	-4.575139	-0.383057
H	-1.724391	-8.424752	-2.778282
H	-4.011093	-7.489616	-3.207396
H	-5.791969	-6.508458	1.219813
H	-4.934485	-6.804085	3.520658
H	-2.627904	-7.721839	3.915039
H	-1.197388	-8.364286	1.979405
H	4.132826	-5.016093	1.722905
H	1.913558	-6.040303	1.272881
H	2.857710	-10.055532	-1.183901
H	4.917557	-11.144561	-2.081852
H	7.155328	-10.047580	-1.763623
H	7.345115	-7.917221	-0.529375
H	7.150005	-1.785974	0.455524
H	10.947512	-1.674170	2.229704
H	10.931435	-4.141371	2.641392
H	7.556282	-7.579228	1.837106
H	9.626330	-6.382894	2.489863
H	5.849598	-3.913689	0.264115
C	-7.373948	-3.045754	-1.042474
N	-8.447030	-2.355757	-1.448605
C	-9.381031	-2.962608	-2.255799
C	-9.236676	-4.273564	-2.675356
C	-6.677703	-7.012910	-2.320429
C	-7.837623	-6.363666	-2.717078
C	-8.093970	-5.030008	-2.292187
C	-7.129475	-4.389210	-1.430824
C	-5.959629	-5.086248	-1.022476
C	-5.709813	-6.389127	-1.463521
C	-2.352862	-8.087040	-1.942791
C	-3.648567	-7.567047	-2.170764
C	-4.438063	-7.080866	-1.125121
C	-3.969483	-7.208518	0.234680
C	-4.766519	-6.874667	1.371132
C	-4.289389	-7.047971	2.663250
C	-2.989107	-7.568276	2.887229
C	-2.187354	-7.917607	1.811437
C	-2.651098	-7.751011	0.474473
C	-1.860769	-8.135976	-0.651303
O	-0.571570	-8.625823	-0.432046
O	1.550395	-8.378667	-0.049320
C	0.409869	-7.689172	-0.314255
O	0.275547	-6.496103	-0.431224
C	4.086363	-5.941597	1.129167
C	2.821623	-6.524346	0.896117
C	2.748280	-7.714857	0.187595
C	3.921853	-8.371403	-0.304051
C	3.843472	-9.596016	-1.029431
C	4.988944	-10.195522	-1.530639
C	6.252751	-9.580253	-1.342773
C	6.358271	-8.389130	-0.637078
C	5.211373	-7.757144	-0.069677
C	5.274987	-6.522185	0.675764
C	7.962866	-2.345103	0.946321
N	9.040112	-1.647340	1.328260
C	10.091300	-2.295180	1.930484
C	10.067190	-3.661794	2.157606
C	7.650776	-6.504583	1.620849
C	8.806610	-5.836670	1.998736
C	8.933796	-4.435156	1.780385
C	7.836426	-3.742685	1.150648
C	6.669574	-4.454573	0.761353
C	6.548621	-5.827876	0.994162
