162
Coordinates from ORCA-job cage_L-2_anthracene-9,10-dione_orca_opt
  C   -4.70830730727765      1.23018394966149      4.05880881137635
  C   -3.41386451795915      1.56188526891548      4.54030306859392
  C   -2.30652826412152      1.86151255632212      4.99428116966631
  C   -1.04872815815356      2.23013028627920      5.55577289526926
  C   -0.99469374730058      2.79083021855244      6.86173413605009
  C   0.23410023298255      3.16609221363625      7.41791524017947
  C   1.42181374599627      2.99998972655553      6.69539175382558
  C   1.39279663470066      2.44135893085081      5.38766700590210
  C   2.60727878837479      2.28527129791753      4.65692935149683
  C   3.67843839395030      2.17031866422379      4.05572365080726
  C   4.93357961622277      2.05499369409459      3.40081517762456
  C   6.14680791788001      2.47595980997254      4.01097823117857
  C   7.35089316725067      2.33946969857516      3.31516115523128
  C   7.34835006758864      1.78785058242653      2.02741151226577
  N   6.19466057674842      1.38421085043979      1.44161948723814
  C   5.01988797379764      1.50887950592962      2.09482500174197
  C   0.15202777321245      2.05465563184826      4.82732932652958
  C   -5.88293684272703      1.46105434146628      4.82590989908347
  C   -7.12957084181906      1.11824052906361      4.29612680780900
  C   -7.20678752906131      0.55088134244267      3.01762257525771
  N   -6.09025146587170      0.32746284387377      2.28241619498752
  C   -4.87582198527041      0.65124286526152      2.77506020228752
  H   -1.92538793884651      2.92735074301087      7.43075103907232
  H   0.26636331887604      3.59720667377249      8.42902661531058
  H   2.38395312694584      3.30037783352937      7.13407012906590
  H   6.12885892062573      2.90469206321091      5.02316871004643
  H   8.30268699791332      2.65785948585247      3.76413497029352
  H   8.27756545125167      1.66298924017971      1.45172550369382
  H   4.11868654490061      1.16567791909545      1.56295015992974
  H   0.12005613554981      1.61973284572790      3.81958020939894
  H   -5.80206641464423      1.90657971132287      5.82778800767771
  H   -8.05294549862678      1.28669689574907      4.86887149586498
  H   -8.17053449239897      0.26709784154938      2.56975330003644
  H   -4.00776326702638      0.44633498813653      2.12934801854398
  C   -4.39542113705478     -4.05736534948302      2.11746348007492
  C   -3.05558446265486     -4.47744514409165      2.33212066019096
  C   -1.90443998491032     -4.87679983298394      2.52561645629515
  C   -0.59238133960623     -5.38265156407676      2.76242335734139
  C   -0.42475885308388     -6.64615458757603      3.39323706231553
  C   0.85918888735856     -7.15703532374469      3.61819698535144
  C   1.99137304914025     -6.43539335425715      3.22176627206307
  C   1.84870876182221     -5.16974132741374      2.58883130001484
  C   3.00804926963752     -4.44848461134546      2.17743667577683
  C   4.03547255906674     -3.86008650303141      1.83055863849009
  C   5.24446118342105     -3.22084181631858      1.44665176522147
  C   6.51680950817293     -3.81615777693977      1.66715880519755
  C   7.67171267395594     -3.14203672739085      1.26261591949002
  C   7.56233018060694     -1.88878584127330      0.64618763413933
  N   6.35214531794663     -1.31625494833965      0.43421082156944
  C   5.22336548438873     -1.94986540156282      0.81772148927511
  C   0.55154282476552     -4.64846356221560      2.36820664387518
  C   -5.50913974173279     -4.85673654902565      2.49462550337408
  C   -6.80414792972946     -4.39216858428773      2.25060481346619
  C   -6.98901506615308     -3.14529035861870      1.63936526396134
  N   -5.93107372372973     -2.37797626241606      1.27978858533106
  C   -4.67154083596998     -2.80810781335052      1.50610167801781
  H   -1.31096558536016     -7.21838572650187      3.70218826169459
  H   0.97925649143139     -8.13470087505775      4.10720307431117
  H   2.99740049339366     -6.84251725444077      3.39717682522446
  H   6.58183643483196     -4.80061784116911      2.15222816567318
  H   8.66744156340812     -3.58062765082454      1.42142843111999
  H   8.44983105807847     -1.32965209733519      0.31499020423299
  H   4.27181996503760     -1.43447758135210      0.61433387613269
  H   0.43186056153593     -3.66921768726971      1.88567076788406
  H   -5.34359918789066     -5.83298752947786      2.97267677043409
  H   -7.68199929716675     -4.99170189076287      2.53134474021400
  H   -7.99375806256767     -2.74846230058981      1.43150793304072
  H   -3.85434255663994     -2.14331340189888      1.18653603868835
  C   -4.94211306368375     -2.06060384932909     -3.40968805283327
  C   -3.68609124303082     -2.17856676343144     -4.06253427546153
  C   -2.61463084650027     -2.29402606548708     -4.66314402318321
  C   -1.40004874861735     -2.45409021114306     -5.39291576275880
  C   -1.42879552391396     -3.02228854306996     -6.69652862802969
  C   -0.24107379417043     -3.19233692265869     -7.41809417302241
  C   0.98750610989727     -2.81209733403708     -6.86484505262074
  C   1.04130816489466     -2.24175614220922     -5.56306264300997
  C   2.29876934748660     -1.86660719745010     -5.00511041617253
  C   3.40548187955043     -1.55943078658211     -4.55463984999325
  C   4.69933740075817     -1.22134477168062     -4.07595424494110
  C   5.87339696649810     -1.44417654997707     -4.84620933990716
  C   7.11925423142990     -1.09421007283217     -4.31916940069794
  C   7.19635121033898     -0.52770338601196     -3.04030865830511
  N   6.08026157092788     -0.31284077041552     -2.30178658806999
  C   4.86664293010258     -0.64320693853819     -2.79176556044434
  C   -0.15957167876754     -2.06173114078761     -4.83589608012752
  C   -6.15462801659946     -2.48313301694375     -4.02019769583657
  C   -7.36003071778130     -2.34142189044954     -3.32764505827474
  C   -7.35951705059545     -1.78336393975848     -2.04268477568656
  N   -6.20631237146734     -1.37945451705494     -1.45619113089439
  C   -5.03034558885482     -1.50855033460990     -2.10635862686568
  H   -2.39066824306876     -3.32716827173317     -7.13267837922879
  H   -0.27310891758275     -3.63093729252527     -8.42599533945740
  H   1.91802312122160     -2.95064645797037     -7.43366293573227
  H   5.79282147140655     -1.88914787122877     -5.84836104726521
  H   8.04220373878419     -1.25613808069054     -4.89450293320864
  H   8.15946615220125     -0.23838624687079     -2.59465334888688
  H   3.99937202297849     -0.44625394777963     -2.14249822193598
  H   -0.12791597011503     -1.61905433704276     -3.83152568867543
  H   -6.13527687365661     -2.91629447976388     -5.03047755556029
  H   -8.31132916681539     -2.66048435249076     -3.77718022474169
  H   -8.28982249180526     -1.65399404965256     -1.46976753605956
  H   -4.13018305585810     -1.16559976070972     -1.57256909105380
  C   -5.25991265126804      3.23337437061117     -1.46266915307996
  C   -4.05078361949410      3.87405979123631     -1.84396392419633
  C   -3.02207025750075      4.46427420498562     -2.18392425079719
  C   -1.86183552653164      5.18825340802688     -2.58811437796926
  C   -2.00344368906578      6.45857933095180     -3.21189245184063
  C   -0.87059915220323      7.18329119884927     -3.60075922057726
  C   0.41297299364314      6.67111664109076     -3.37665807169817
  C   0.57965278138554      5.40312273434765     -2.75459418395099
  C   1.89161216397546      4.89590496500253     -2.51990616786924
  C   3.04261587277776      4.49592652845359     -2.32666234536638
  C   4.38308840633828      4.07480751543375     -2.11758440955363
  C   5.49593932289432      4.87539899300618     -2.49446172808790
  C   6.79155991704230      4.40892144826745     -2.25693382484744
  C   6.97798371438562      3.15917742776290     -1.65215622706059
  N   5.92060683990160      2.39120139496233     -1.29213950032812
  C   4.66068657978557      2.82269279338298     -1.51256778299199
  C   -0.56497786734776      4.66562757444793     -2.36862025073546
  C   -6.53269996582089      3.82745134497242     -1.68345049439395
  C   -7.68714948786935      3.15066365782710     -1.28171540421780
  C   -7.57684116795637      1.89646859150470     -0.66744899900707
  N   -6.36598601852245      1.32543415651701     -0.45473106500771
  C   -5.23784267677846      1.96106755103328     -0.83640536770680
  H   -3.00918874485570      6.86696097227580     -3.38601921690230
  H   -0.98984478814516      8.16448439001036     -4.08283947993672
  H   1.29964538165788      7.24533624915907     -3.68056750561036
  H   5.32947527014340      5.85406943367901     -2.96720154355010
  H   7.66882372085558      5.00910345242248     -2.53814789676190
  H   7.98324768787596      2.76097901959092     -1.44948813367897
  H   3.84463961352380      2.15671779276353     -1.19251086572903
  H   -0.44618339584321      3.68289927189409     -1.89303086706832
  H   -6.59867518036288      4.81268353756734     -2.16681219227430
  H   -8.68334324124393      3.58800384965171     -1.44108403168841
  H   -8.46401409143666      1.33556873545657     -0.33835424172540
  H   -4.28592048279265      1.44657224393762     -0.63290590852844
  Pd  -6.18659275619527     -0.52957446124829      0.41566966927725
  Pd  6.17542961492998      0.54021633965383     -0.43300019269630
  O   -2.71983309014175     -0.21417429269660      0.12768170649832
  C   -1.48121052320390     -0.11297489335186      0.06819551320173
  C   -0.63894668013826     -1.24732344158632     -0.40374910063107
  C   0.77806520029065     -1.12720955170354     -0.48499371395363
  C   1.53662357193006     -2.22333116170766     -0.94206455798658
  C   0.91529572267838     -3.42357702619150     -1.31434531565428
  C   -0.48315070257729     -3.54252268143508     -1.23289005007420
  C   -1.25021717309746     -2.45977130617723     -0.78103887604456
  C   -0.79342023028814      1.14785738930130      0.46331261087880
  C   0.62341492263911      1.26837110490300      0.38147566884019
  C   1.23442895662321      2.48047812148651      0.76058533975784
  C   0.46702489406847      3.56118092576796      1.21688209748582
  C   -0.93134606069809      3.44147226282734      1.29938662159299
  C   -1.55243208663000      2.24237364563266      0.92346680068459
  C   1.46519910541087      0.13683824068542     -0.09845963304267
  O   2.70221426219367      0.24498288930860     -0.17521780669279
  H   2.62934593292460     -2.12714505091012     -1.00532457192897
  H   1.52132532997748     -4.27043812249885     -1.66938754006868
  H   -0.97498227813616     -4.48218930522954     -1.52575829875694
  H   -2.34403266580501     -2.54649305163388     -0.71800768420596
  H   2.32781217371222      2.57007656759399      0.69351072352716
  H   0.95835197336023      4.50124813252435      1.50938532872851
  H   -1.53732734348959      4.28804262802034      1.65524773565711
  H   -2.64523886927993      2.14484699398334      0.98321708858461
