262
cage_7-isoquinoline_1-4-phenyl_1-3-phenyl-2-methyl.xyz
Pd	9.061287	-0.017653	-0.354918
Pd	-9.024365	0.023154	0.356014
H	-6.884544	0.376810	2.378199
H	-10.954715	-0.606209	2.591258
H	-10.866133	-0.836753	5.081937
H	-7.221312	-0.393760	8.288564
H	-9.430939	-0.753313	7.240585
H	-5.439485	0.410608	4.409774
H	-1.887195	1.945175	6.673418
H	-4.131955	1.733083	5.667575
H	-5.184891	-1.227652	8.675899
H	-2.943249	-0.991524	9.681661
H	1.130172	-0.659728	6.384546
H	0.209700	0.792520	5.924131
H	-0.660323	-0.657703	6.472586
H	-1.724982	1.049420	10.798708
H	0.491888	1.290141	11.933664
H	2.595535	1.011368	10.609870
H	5.847093	-1.265843	8.233600
H	3.691695	-1.017578	9.411481
H	2.401956	1.891505	6.469303
H	4.559979	1.666849	5.289922
H	7.077899	0.339317	1.818982
H	11.155057	-0.634510	1.735781
H	11.245543	-0.875292	4.224906
H	7.838603	-0.457762	7.685979
H	9.966931	-0.807662	6.481703
H	5.782225	0.363723	3.949061
C	-7.741117	0.099523	3.013716
N	-8.913756	-0.107506	2.402836
C	-10.020234	-0.440814	3.146277
C	-9.956715	-0.568998	4.523744
C	-7.317975	-0.306460	7.196019
C	-8.561170	-0.500325	6.615804
C	-8.726259	-0.369774	5.207754
C	-7.571022	-0.019567	4.417864
C	-6.309639	0.175680	5.041156
C	-6.153881	0.033430	6.424362
C	-2.601078	1.224015	7.098504
C	-3.870313	1.098624	6.528236
C	-4.832467	0.211958	7.069692
C	-4.473989	-0.516154	8.228642
C	-3.200770	-0.390064	8.796814
C	-2.228264	0.469349	8.235657
C	0.246624	-0.048395	6.649397
C	0.315866	0.416639	8.089306
C	-0.875587	0.600338	8.850138
C	-0.795774	0.902684	10.227448
C	0.442662	1.041393	10.863401
C	1.617785	0.881201	10.121633
C	1.572428	0.580750	8.741828
C	5.102665	-0.558963	7.836607
C	3.879047	-0.425399	8.503337
C	2.866099	0.431902	8.014374
C	3.147148	1.173517	6.842421
C	4.366696	1.040319	6.173834
C	5.369031	0.158576	6.646495
C	7.978328	0.061733	2.390134
N	9.104170	-0.141250	1.695417
C	10.261925	-0.473903	2.356368
C	10.297754	-0.607724	3.734462
C	7.856015	-0.363280	6.589895
C	9.054782	-0.552907	5.921486
C	9.119117	-0.414411	4.506031
C	7.909676	-0.062807	3.802329
C	6.695913	0.127871	4.515245
C	6.639522	-0.019948	5.905549
H	-6.974447	2.120173	-0.086544
H	-11.001736	2.188749	1.077426
H	-10.984965	4.678553	1.329673
H	-7.466963	8.007110	0.772181
H	-9.624781	6.884042	1.211206
H	-5.598526	4.198308	-0.159082
H	-2.199950	6.605323	-1.832057
H	-4.393277	5.515279	-1.525018
H	-5.410094	8.450629	1.520812
H	-3.220221	9.539985	1.190531
H	0.964759	6.418248	0.608439
H	-0.013385	5.931492	-0.796301
H	-0.825485	6.431123	0.704137
H	-2.159081	10.723717	-0.891584
H	-0.007391	11.952035	-1.243824
H	2.161004	10.714540	-1.095707
H	5.609900	8.453126	1.021441
H	3.403135	9.550493	0.870772
H	2.103947	6.575968	-2.000843
H	4.311992	5.475966	-1.871723
H	6.991944	2.087264	-0.633126
H	11.104616	2.142840	0.181275
H	11.121073	4.634329	0.414230
H	7.587019	7.978719	0.124713
H	9.766753	6.846594	0.393168
H	5.626396	4.173417	-0.612039
C	-7.838103	2.724106	0.235576
N	-8.979380	2.072466	0.488461
C	-10.093997	2.775722	0.877460
C	-10.070036	4.153368	1.017372
C	-7.532711	6.913268	0.673695
C	-8.747033	6.290783	0.913823
C	-8.872384	4.879685	0.772549
C	-7.708757	4.131849	0.362839
C	-6.477842	4.798110	0.120385
C	-6.360654	6.183960	0.273203
C	-2.892181	6.995055	-1.070878
C	-4.132678	6.377682	-0.892514
C	-5.070507	6.875009	0.044591
C	-4.718594	8.037239	0.770598
C	-3.474199	8.652642	0.591306
C	-2.525012	8.137488	-0.321475
C	0.038854	6.650882	0.048757
C	0.023285	8.095785	-0.405251
C	-1.206714	8.807784	-0.515180
C	-1.200253	10.190401	-0.804370
C	0.001318	10.878525	-1.004495
C	1.212934	10.184800	-0.917776
C	1.241127	8.801984	-0.629823
C	4.851837	8.032126	0.343734
C	3.599377	8.652569	0.265929
C	2.569786	8.128833	-0.549962
C	2.863589	6.972854	-1.311495
C	4.111948	6.350102	-1.233626
C	5.131328	6.855243	-0.390420
C	7.883072	2.688894	-0.391993
N	9.038610	2.032827	-0.231987
C	10.185674	2.732954	0.054064
C	10.180597	4.111769	0.184400
C	7.637751	6.883575	0.031099
C	8.864539	6.255841	0.174668
C	8.970293	4.842959	0.035809
C	7.772284	4.098441	-0.267540
C	6.529122	4.770158	-0.412107
C	6.432473	6.158122	-0.263843
H	-7.051359	-0.354790	-1.824329
H	-11.111792	0.685650	-1.726285
H	-11.203007	0.944492	-4.213570
H	-7.806326	0.501888	-7.682923
H	-9.928779	0.873028	-6.473244
H	-5.758680	-0.378136	-3.954766
H	-2.389601	-1.909202	-6.478049
H	-4.546345	-1.673741	-5.299603
H	-5.809562	1.281398	-8.231321
H	-3.655810	1.020997	-9.409645
H	0.683582	0.644579	-6.469265
H	-0.208445	-0.792156	-5.917649
H	-1.107410	0.666322	-6.396409
H	-2.567280	-1.029132	-10.610372
H	-0.460216	-1.320435	-11.927478
H	1.753668	-1.081403	-10.787874
H	5.217079	1.189981	-8.681524
H	2.974860	0.954371	-9.685743
H	1.904151	-1.948687	-6.650373
H	4.149451	-1.736180	-5.644715
H	6.913894	-0.361440	-2.369072
H	10.993451	0.577156	-2.599848
H	10.901614	0.786785	-5.092202
H	7.248130	0.347738	-8.287972
H	9.461615	0.697740	-7.247039
H	5.464808	-0.404430	-4.399181
C	-7.948126	-0.057736	-2.391470
N	-9.069278	0.158415	-1.693264
C	-10.222649	0.514989	-2.349822
C	-10.258515	0.658914	-3.726923
C	-7.824446	0.399179	-6.587652
C	-9.019586	0.600916	-5.916397
C	-9.084261	0.452739	-4.501896
C	-7.879478	0.077353	-3.802707
C	-6.669264	-0.124873	-4.518404
C	-6.611876	0.033800	-5.907487
C	-3.128976	-1.183802	-6.848610
C	-4.348359	-1.045067	-6.180943
C	-5.343939	-0.153918	-6.650506
C	-5.070835	0.566957	-7.837150
C	-3.847835	0.426915	-8.503697
C	-2.841676	-0.439543	-8.017206
C	-0.228164	0.043676	-6.649446
C	-0.292095	-0.430438	-8.086615
C	-1.547174	-0.593436	-8.742196
C	-1.590136	-0.900768	-10.120389
C	-0.413259	-1.067197	-10.858181
C	0.823701	-0.929221	-10.219332
C	0.901046	-0.622208	-8.842780
C	4.502692	0.486578	-8.227117
C	3.229441	0.360304	-8.795111
C	2.252766	-0.489593	-8.226594
C	2.621407	-1.234654	-7.081619
C	3.890585	-1.108645	-6.511258
C	4.856870	-0.231537	-7.060715
C	7.771727	-0.099094	-3.009176
N	8.947816	0.101381	-2.402554
C	10.055943	0.416313	-3.151156
C	9.990865	0.533283	-4.529549
C	7.345275	0.268921	-7.194774
C	8.590876	0.458491	-6.618191
C	8.757248	0.339458	-5.209314
C	7.600108	0.007655	-4.414110
C	6.336309	-0.183503	-5.033791
C	6.179987	-0.054961	-6.418274
H	-6.960545	-2.087523	0.642794
H	-11.064919	-2.129735	-0.213646
H	-11.082964	-4.619225	-0.466467
H	-7.555506	-7.970964	-0.170640
H	-9.731960	-6.833769	-0.449659
H	-5.597399	-4.173805	0.612741
H	-2.079392	-6.582395	1.989419
H	-4.286888	-5.482438	1.859624
H	-5.576026	-8.444919	-1.052633
H	-3.370675	-9.544721	-0.898575
H	0.854780	-6.420847	-0.704881
H	0.020507	-5.928812	0.786992
H	-0.936464	-6.420954	-0.629253
H	-2.130964	-10.714773	1.080094
H	0.040168	-11.947648	1.238471
H	2.189986	-10.715330	0.893698
H	5.454418	-8.453813	-1.495576
H	3.263111	-9.542968	-1.175483
H	2.211069	-6.582833	1.811021
H	4.406326	-5.492583	1.514433
H	7.002560	-2.108305	0.068804
H	11.047059	-2.191584	-1.032564
H	11.030606	-4.683261	-1.265219
H	7.503774	-8.004031	-0.726037
H	9.666902	-6.886235	-1.147022
H	5.624355	-4.185902	0.144153
C	-7.850186	-2.685460	0.387422
N	-9.003136	-2.026364	0.221422
C	-10.148331	-2.722500	-0.082265
C	-10.143917	-4.100244	-0.223091
C	-7.606003	-6.876487	-0.070097
C	-8.830861	-6.246273	-0.218193
C	-8.936064	-4.834374	-0.069208
C	-7.740023	-4.094048	0.251292
C	-6.498636	-4.768228	0.399770
C	-6.401865	-6.154885	0.239193
C	-2.837523	-6.977002	1.296935
C	-4.085484	-6.353664	1.218013
C	-5.102224	-6.854273	0.368747
C	-4.820272	-8.027846	-0.369898
C	-3.568451	-8.649352	-0.290417
C	-2.541676	-8.129576	0.531284
C	-0.015123	-6.647634	-0.059484
C	0.004165	-8.093228	0.392266
C	-1.212802	-8.802110	0.612499
C	-1.183061	-10.183866	0.904622
C	0.029948	-10.874607	0.997191
C	1.230619	-10.184104	0.800184
C	1.235466	-8.801785	0.508967
C	4.755771	-8.034502	-0.755366
C	3.510966	-8.650535	-0.581331
C	2.553158	-8.129391	0.319038
C	2.911627	-6.979263	1.061027
C	4.152216	-6.360725	0.887188
C	5.099090	-6.865092	-0.036934
C	7.870239	-2.716231	-0.234344
N	9.016075	-2.067975	-0.475475
C	10.135454	-2.775597	-0.841511
C	10.112076	-4.154320	-0.970354
C	7.568130	-6.909275	-0.636753
C	8.785884	-6.289546	-0.866636
C	8.910294	-4.877345	-0.736501
C	7.741480	-4.124980	-0.350184
C	6.507157	-4.788528	-0.117707
C	6.391515	-6.175808	-0.258178
