226
cage_7-isoquinoline_1-4-phenyl_carbonate.xyz
Pd	9.163777	-0.301419	-0.473640
Pd	-9.189431	0.311058	0.477203
H	-6.956317	0.642007	2.356400
H	-11.074621	0.044475	2.863825
H	-10.855087	-0.010520	5.356011
H	-6.988061	0.340066	8.316349
H	-9.282068	0.095531	7.424697
H	-5.395496	0.718775	4.293112
H	-1.618105	2.153843	6.160306
H	-3.976561	2.097347	5.398054
H	-4.942326	-0.705160	8.582846
H	-2.569763	-0.612995	9.356947
H	4.580392	1.779894	4.916720
H	2.323484	1.987385	5.918211
H	3.448418	-0.776099	9.061059
H	5.716084	-1.021624	8.046652
H	7.158042	0.170979	1.621729
H	11.258087	-0.704286	1.713234
H	11.286627	-0.752622	4.214309
H	7.770373	-0.140050	7.547237
H	9.941280	-0.540939	6.430940
H	5.808731	0.340031	3.702301
C	-7.794837	0.491291	3.055694
N	-9.013808	0.339022	2.525883
C	-10.097162	0.165241	3.352433
C	-9.961267	0.133641	4.730931
C	-7.146534	0.359743	7.227211
C	-8.436063	0.230237	6.733891
C	-8.678968	0.274519	5.330964
C	-7.551259	0.467701	4.453004
C	-6.242436	0.603923	4.986733
C	-6.012879	0.548924	6.365088
C	-2.346107	1.518404	6.678912
C	-3.674912	1.469138	6.249884
C	-4.635956	0.661004	6.902779
C	-4.226432	-0.064499	8.046433
C	-2.896157	-0.032648	8.482127
C	-1.956559	0.738594	7.781087
O	-0.654670	0.728431	8.270065
O	1.510006	0.657283	8.152360
C	0.381833	0.649136	7.395298
O	0.313423	0.567926	6.191925
C	4.336657	1.185415	5.809910
C	3.065237	1.320104	6.373212
C	2.750689	0.584814	7.528805
C	3.713002	-0.230594	8.144221
C	4.985740	-0.348381	7.573056
C	5.314554	0.334123	6.377788
C	8.051401	-0.038362	2.232124
N	9.197774	-0.270156	1.582465
C	10.344791	-0.519209	2.296652
C	10.346151	-0.545818	3.682049
C	7.819330	-0.132318	6.447667
C	9.040911	-0.348399	5.828318
C	9.143510	-0.319615	4.407885
C	7.948491	-0.049860	3.646862
C	6.711631	0.171014	4.308473
C	6.619141	0.132347	5.703251
H	-7.045092	2.235532	-0.076225
H	-11.089076	2.659871	0.947807
H	-10.908555	5.154834	1.005524
H	-7.149536	8.189126	0.302910
H	-9.392453	7.253883	0.756956
H	-5.531956	4.198919	-0.272784
H	-1.907459	6.124314	-1.968657
H	-4.243431	5.334394	-1.738287
H	-5.031728	8.493018	1.149239
H	-2.684711	9.296160	0.880606
H	4.342881	5.030655	-2.158830
H	2.054391	5.978665	-2.160947
H	3.330762	9.099604	0.562018
H	5.633251	8.138016	0.599564
H	7.096307	1.760214	-0.798972
H	11.246201	1.918498	-0.211992
H	11.232467	4.418497	-0.132684
H	7.621690	7.691085	-0.438794
H	9.836351	6.611868	-0.219485
H	5.701178	3.816446	-0.840435
C	-7.876161	2.917090	0.167473
N	-9.063615	2.362848	0.437851
C	-10.137939	3.167360	0.732597
C	-10.023284	4.547748	0.764273
C	-7.289508	7.097513	0.285301
C	-8.551725	6.579737	0.533928
C	-8.773314	5.173100	0.499040
C	-7.655460	4.318278	0.183689
C	-6.375179	4.876933	-0.071488
C	-6.163770	6.258381	-0.019781
C	-2.590675	6.632518	-1.278049
C	-3.906327	6.186406	-1.128572
C	-4.811122	6.820762	-0.244505
C	-4.361243	7.967289	0.452728
C	-3.043636	8.420860	0.320668
C	-2.155586	7.735232	-0.522875
O	-0.862958	8.240904	-0.597926
O	1.300612	8.166846	-0.712320
C	0.190988	7.385563	-0.649448
O	0.150968	6.178275	-0.622946
C	4.128007	5.906124	-1.528097
C	2.837058	6.441016	-1.548332
C	2.557015	7.573875	-0.764660
C	3.570507	8.199556	-0.021801
C	4.860961	7.657341	-0.019146
C	5.158766	6.480302	-0.746574
C	7.991464	2.384677	-0.646322
N	9.162770	1.753947	-0.504105
C	10.311530	2.486449	-0.325276
C	10.289449	3.871103	-0.279833
C	7.690269	6.592968	-0.470193
C	8.935411	5.994429	-0.353248
C	9.061362	4.576871	-0.411374
C	7.864107	3.796911	-0.607247
C	6.602754	4.437503	-0.727657
C	6.487466	5.829272	-0.656407
H	-7.184554	-0.158015	-1.615995
H	-11.289580	0.695363	-1.711199
H	-11.319033	0.728762	-4.211802
H	-7.800112	0.117414	-7.542581
H	-9.973123	0.510631	-6.428290
H	-5.835464	-0.331913	-3.695382
H	-2.345925	-1.982608	-5.901687
H	-4.605163	-1.781196	-4.905097
H	-5.747846	1.003491	-8.047461
H	-3.477850	0.763958	-9.057233
H	3.950146	-2.093615	-5.385085
H	1.590286	-2.147678	-6.142818
H	2.543910	0.601337	-9.354445
H	4.917898	0.691242	-8.584506
H	6.933174	-0.630310	-2.350667
H	11.052590	-0.043173	-2.863068
H	10.831132	0.003102	-5.354873
H	6.961455	-0.349139	-8.311461
H	9.256692	-0.107638	-7.422230
H	5.370883	-0.710196	-4.285722
C	-8.079505	0.042656	-2.226982
N	-9.226824	0.272070	-1.578026
C	-10.375248	0.511193	-2.293308
C	-10.377182	0.529936	-3.678915
C	-7.849034	0.113383	-6.442981
C	-9.071552	0.327263	-5.824638
C	-9.173879	0.305387	-4.404047
C	-7.977252	0.046433	-3.641752
C	-6.739481	-0.172246	-4.302355
C	-6.647387	-0.141118	-5.697329
C	-3.090214	-1.321623	-6.361691
C	-4.361948	-1.187601	-5.799026
C	-5.342157	-0.341563	-6.370858
C	-5.014874	0.336471	-7.569037
C	-3.741717	0.219604	-8.139516
C	-2.777041	-0.589811	-7.519932
O	-1.536312	-0.662607	-8.143170
O	0.628241	-0.733692	-8.261097
C	-0.408029	-0.651699	-7.386394
O	-0.339285	-0.566450	-6.183332
C	3.648099	-1.466982	-6.237907
C	2.319259	-1.517570	-6.666596
C	1.930283	-0.743077	-7.772731
C	2.870453	0.023596	-8.477986
C	4.200802	0.056561	-8.042639
C	4.609996	-0.663630	-6.895501
C	7.771617	-0.483812	-3.050927
N	8.991329	-0.332381	-2.522184
C	10.074435	-0.164003	-3.350233
C	9.937380	-0.136787	-4.728717
C	7.120775	-0.366775	-7.222401
C	8.410743	-0.237333	-6.730362
C	8.654580	-0.277456	-5.327475
C	7.527015	-0.464888	-4.448124
C	6.217622	-0.600750	-4.980532
C	5.987277	-0.550894	-6.359008
H	-7.115763	-1.750525	0.790356
H	-11.267515	-1.910431	0.219623
H	-11.253471	-4.411274	0.140510
H	-7.641436	-7.682222	0.442662
H	-9.856233	-6.603627	0.224508
H	-5.720182	-3.806493	0.830431
H	-2.072548	-5.970890	2.156939
H	-4.359595	-5.015136	2.147786
H	-5.655870	-8.134023	-0.594579
H	-3.356411	-9.102959	-0.549080
H	4.213681	-5.325876	1.731047
H	1.879993	-6.123767	1.971374
H	2.656374	-9.296596	-0.876341
H	5.000446	-8.485646	-1.155417
H	7.015882	-2.226881	0.076798
H	11.056938	-2.650987	-0.957740
H	10.874398	-5.146149	-1.023535
H	7.116505	-8.180004	-0.317344
H	9.358181	-7.244047	-0.777665
H	5.501449	-4.190357	0.269839
C	-8.011309	-2.375398	0.641431
N	-9.183558	-1.745682	0.504040
C	-10.332499	-2.478595	0.329179
C	-10.310306	-3.863254	0.284368
C	-7.709689	-6.584020	0.470861
C	-8.955201	-5.985867	0.356024
C	-9.081318	-4.568261	0.412039
C	-7.883648	-3.787695	0.602870
C	-6.621853	-4.427906	0.720802
C	-6.506627	-5.819910	0.653537
C	-2.857113	-6.433585	1.546599
C	-4.146123	-5.894805	1.522474
C	-5.178040	-6.471417	0.743812
C	-4.882604	-7.652472	0.022302
C	-3.593652	-8.198796	0.029297
C	-2.579928	-7.572220	0.770549
O	-1.325311	-8.170282	0.731094
O	0.838687	-8.245837	0.615707
C	-0.216214	-7.390410	0.644434
O	-0.177195	-6.184427	0.584622
C	3.876516	-6.179578	1.123859
C	2.563075	-6.629920	1.278722
C	2.129175	-7.735933	0.528022
C	3.014881	-8.419353	-0.319277
C	4.330626	-7.961483	-0.457145
C	4.779856	-6.813328	0.237610
C	7.845585	-2.908476	-0.171299
N	9.033246	-2.354528	-0.441612
C	10.105989	-3.158778	-0.742426
C	9.990406	-4.538946	-0.777978
C	7.256642	-7.088428	-0.299608
C	8.518336	-6.570415	-0.549695
C	8.740415	-5.163929	-0.512089
C	7.623659	-4.309535	-0.191989
C	6.343553	-4.868475	0.064042
C	6.131808	-6.249836	0.010259
