180
Coordinates from ORCA-job cage_L-5_naphthalene-1,4-dione_orca_opt
  C   6.35434385363788      0.01339087661377     -3.58946098537266
  C   5.15687887702866     -0.07964488949656     -4.34151650831282
  C   4.13004296109903     -0.16092710886244     -5.02144716552195
  C   2.96088770048145     -0.25246035196593     -5.82603475431827
  C   3.07640185337892     -0.43180236059449     -7.24852868873099
  C   1.94411355823911     -0.52471187647265     -8.03669344919309
  C   0.63857200751190     -0.44220980275928     -7.46748155587225
  C   -0.54583223336358     -0.53177623620321     -8.25786670102067
  C   -1.79980133362383     -0.44495702812201     -7.68097967516202
  C   -1.93697118440505     -0.26544898000866     -6.26057054035300
  C   -3.22966063516351     -0.18052023033916     -5.67226146645939
  C   -4.35788402842270     -0.11031300841841     -5.17706250043169
  C   -5.66540684626996     -0.04453445395852     -4.63231421006882
  C   -6.82795710188583     -0.01089727301215     -5.45088208541209
  C   -8.08914613805614      0.04930448854102     -4.85438766336487
  C   -8.19286969951106      0.07307018551321     -3.45754149303920
  N   -7.08876890231355      0.03870047488801     -2.67238331809657
  C   -5.85982356070039     -0.01584792082738     -3.22693762169607
  C   -0.78570779699332     -0.17698371972204     -5.46398831405142
  C   0.51157724893575     -0.26043953528791     -6.03928764150222
  C   1.68682577812364     -0.17048563998923     -5.24433478277195
  C   7.63485915932201      0.06845742094328     -4.20607523433838
  C   8.77964534062929      0.15477334203934     -3.41130104864947
  C   8.65303274199622      0.18186526188299     -2.01658280399970
  N   7.43587288565833      0.12782797902747     -1.42176854383942
  C   6.31741991999311      0.04789958848658     -2.17131559041002
  H   4.07596868404286     -0.49728663271873     -7.70125836580613
  H   2.04439640020361     -0.66531416721430     -9.12408544896277
  H   -0.45088106435452     -0.67264856509545     -9.34558221575927
  H   -2.70396012805974     -0.51583966299897     -8.30202833088798
  H   -6.72315856253591     -0.03228883399112     -6.54585754081157
  H   -9.00353495037873      0.07800308592180     -5.46442149098794
  H   -9.16892843185913      0.11871821357923     -2.95187256893333
  H   -5.00005669945289     -0.04048307114131     -2.53905697795954
  H   -0.88653104225163     -0.03789101552368     -4.37676015105317
  H   1.59160900972618     -0.03180783118022     -4.15643480239268
  H   7.71236981524336      0.04194103482080     -5.30315496220302
  H   9.78080423800627      0.19927499287580     -3.86417431362983
  H   9.53310741976720      0.24578770888362     -1.35944799491820
  H   5.35506307727319      0.00366583693910     -1.63950247832344
  C   6.10030851007931     -4.02699657266411      0.57244272921591
  C   4.85584914707782     -4.70140291232887      0.51786918888542
  C   3.77996033726792     -5.30422924822518      0.47479320260649
  C   2.54319661138946     -6.00466778412464      0.43701992712535
  C   2.51235673959434     -7.43111540052923      0.61692912786784
  C   1.30957842375973     -8.11299198266977      0.59243175350523
  C   0.07566616577576     -7.42693721078854      0.38762602713883
  C   -1.17894438320685     -8.10531433011997      0.36234231285712
  C   -2.36174871114558     -7.41576081926722      0.16819381021898
  C   -2.35247037871368     -5.98877306368972     -0.01348943381227
  C   -3.57641815752539     -5.28743310387598     -0.19593633400216
  C   -4.64992192683658     -4.69716778225657     -0.34483676537781
  C   -5.91014947143148     -4.06447138109344     -0.49127368882907
  C   -7.11712715557522     -4.80746178183192     -0.60857735190076
  C   -8.33250728223109     -4.13237994986971     -0.73761656331054
  C   -8.34707750647619     -2.73188981041019     -0.74615625775703
  N   -7.19948370701161     -2.01879765115240     -0.63523748184874
  C   -6.01243014924765     -2.64937513641392     -0.51580934942153
  C   -1.12951807732706     -5.30265408582181      0.00057020082486
  C   0.09654088386006     -5.99362978775363      0.20080330677352
  C   1.34207451357802     -5.31019225047534      0.22891853069453
  C   7.34104428153573     -4.71908559706499      0.63953197256442
  C   8.53276692303156     -3.99359070194300      0.69320401288462
  C   8.49226710372919     -2.59338957863979      0.68299393824660
  N   7.31276146452633     -1.92730699964926      0.62141961184807
  C   6.15002397663811     -2.60879530950660      0.56623253561460
  H   3.45582244680736     -7.97110895698376      0.77899776311039
  H   1.29472744743624     -9.20463623384079      0.73343352666639
  H   -1.19793270629443     -9.19677804919854      0.50454846157688
  H   -3.32174667866219     -7.95100816374857      0.15273273407637
  H   -7.08216092249192     -5.90693963695882     -0.59645066455936
  H   -9.27963510193067     -4.68317187009704     -0.83143152903673
  H   -9.28534292926591     -2.16556465953345     -0.84236756954936
  H   -5.11303670362579     -2.01833379438741     -0.43179571327078
  H   -1.11403752959215     -4.21204327658659     -0.14830166591100
  H   1.36411950481927     -4.21946492605246      0.08078369692410
  H   7.35063392978349     -5.81916130754487      0.64660300253389
  H   9.50487326770829     -4.50512742696958      0.74573917716915
  H   9.41115759072268     -1.98972057267145      0.72515194296241
  H   5.21971185553028     -2.02239288698502      0.51795083324473
  C   5.75603103748094     -0.00335264082978      4.66513847378851
  C   4.45768805448971     -0.08739579201192      5.22584267513071
  C   3.32945134779031     -0.17769100167341      5.71718207279067
  C   2.03400981196834     -0.30481897175932      6.28969383664335
  C   1.88567349640338     -0.57632619446759      7.69387083531888
  C   0.62732389552842     -0.71449170787883      8.25044491944344
  C   -0.55001885183263     -0.59147091528425      7.45421085468698
  C   -1.85940820062786     -0.73344637219730      8.00204392291734
  C   -2.98444942330132     -0.61424978189040      7.20722862925006
  C   -2.85809592877465     -0.34317605875067      5.80019232336146
  C   -4.02310382838258     -0.23473648169838      4.99130474574932
  C   -5.05007467975785     -0.15846425986962      4.31124490284406
  C   -6.25855304593696     -0.09021747226679      3.57310539422350
  C   -7.53024004088612     -0.07289111865143      4.20920318863523
  C   -8.68897305474080     -0.01091103155306      3.43267583628354
  C   -8.58394255878324      0.03027646927192      2.03670142154942
  N   -7.37419810689741      0.01099195370968      1.42513882926343
  C   -6.24078095576819     -0.04409379931231      2.15499138373718
  C   -1.58031262173385     -0.19383073241138      5.24145882408280
  C   -0.41161938534665     -0.31442028639996      6.04218581946664
  C   0.88976485875553     -0.17399775508657      5.48852915533200
  C   6.93381691747175      0.03057461241944      5.46144290099030
  C   8.18291937586040      0.10712537871502      4.84138514287767
  C   8.26062690581180      0.14474894753952      3.44311614141093
  N   7.14156001429686      0.10877658191397      2.67819157768152
  C   5.92553033275700      0.04117125369973      3.25721678542639
  H   2.78473466487480     -0.67581990729120      8.31829088976388
  H   0.52324819622338     -0.92546487156009      9.32570014361948
  H   -1.96825497642600     -0.94460654134249      9.07688114402375
  H   -3.98728594339362     -0.72837630501711      7.64266628498566
  H   -7.59058790029362     -0.10873112271218      5.30709366790585
  H   -9.68403649164197      0.00552356990064      3.90061972899135
  H   -9.47428172752640      0.07833055437684      1.39231170754467
  H   -5.28729215782653     -0.05727217891175      1.60332172981936
  H   -1.47638028155439      0.02456034240527      4.16767273568490
  H   0.99878049777323      0.04372606385843      4.41486952315194
  H   6.85035611867691     -0.00261621818302      6.55793385843360
  H   9.10836150320352      0.13716072342373      5.43448756790088
  H   9.22651030543070      0.20342379195365      2.91977732095546
  H   5.04857650125648      0.01414365143117      2.59280385142497
  C   6.00749964309827      4.25363564725479      0.68958866979605
  C   4.74746298001310      4.90169097338852      0.69017439500920
  C   3.66140940870729      5.48801379002493      0.69618289178171
  C   2.41218852045184      6.16744804645505      0.70599688862961
  C   2.35773936380259      7.58079062083979      0.96585504076466
  C   1.14412217207260      8.24363600011913      0.97883975744605
  C   -0.07849422616834      7.55093326484138      0.73327762969631
  C   -1.34379268707975      8.20964951003021      0.73971628333646
  C   -2.51429479660528      7.51357032416178      0.49904021389565
  C   -2.48163400152342      6.09929720130164      0.23832175772399
  C   -3.69394609755263      5.39167958581398      0.00710961567790
  C   -4.75953349136056      4.79764279043615     -0.17894348492815
  C   -6.00732547052877      4.15032986307399     -0.36569527934514
  C   -7.22611932770998      4.87485225280766     -0.47823576873579
  C   -8.42630500065761      4.18193138061145     -0.64902103242921
  C   -8.41489101035015      2.78197640056522     -0.70304662454103
  N   -7.25678594254110      2.08648092576513     -0.59508683054963
  C   -6.08452822783860      2.73543853976351     -0.43560071642420
  C   -1.24838100763778      5.43092730595879      0.22545372792752
  C   -0.03473527666868      6.13003757387324      0.46993707759440
  C   1.22146302417230      5.46527010432273      0.46353919183655
  C   7.23397117304433      4.97269416728885      0.73406158996683
  C   8.44285858003673      4.27388429200637      0.73050908823398
  C   8.43301100461694      2.87383425941074      0.68591482372246
  N   7.26767137243430      2.18153056365329      0.64937330260640
  C   6.08921333927197      2.83754697232483      0.64951830795801
  H   3.29255295400183      8.12639188968259      1.15677719696023
  H   1.11153505795925      9.32440740865291      1.18466919053892
  H   -1.38081420532796      9.29068148937683      0.94356896912597
  H   -3.48255829963677      8.03396354593553      0.50854966555750
  H   -7.21272043117555      5.97369355134873     -0.42783571788959
  H   -9.38185853734625      4.71841759955685     -0.74112327140502
  H   -9.34125067224690      2.20267416747106     -0.83240182807993
  H   -5.17639180183018      2.11728490461776     -0.35507313469594
  H   -1.21268101789410      4.35100623123816      0.01758924964612
  H   1.25899727616531      4.38374838077755      0.26365814235952
  H   7.21904382274917      6.07209928351193      0.77094314211321
  H   9.40443163229436      4.80657592232344      0.76201771386442
  H   9.36636943337761      2.29104041583882      0.68284531714276
  H   5.17151085089596      2.23055905059879      0.62367645256203
  Pd  7.29011158306254      0.12628678938090      0.62894028640042
  Pd  -7.24731279886782      0.03300795502051     -0.62393895835388
  O   1.87286458549475      0.04598329124069      0.23606330343552
  C   0.65024443763102      0.07308521482075      0.07153965638838
  C   -0.24191388520274     -0.82490236489029      0.85663914558847
  C   -1.59146522484534     -0.82589057960477      0.70379193619174
  C   -0.01130631811852      0.99068108323673     -0.90705385823030
  C   -1.42546215670372      0.99068103009043     -1.06796918890933
  C   -2.01551809868177      1.86742113851908     -1.99939686604111
  C   -1.22137735049903      2.73637945966710     -2.76237267133540
  C   0.17603558670905      2.73846683130978     -2.59967118964777
  C   0.77578445810707      1.86701188407186     -1.67659522234860
  C   -2.27872509899439      0.07360998132021     -0.25810346681546
  O   -3.51630262649644      0.04915939621746     -0.36582716898849
  H   0.26225312085814     -1.49396326132176      1.57325237021029
  H   -2.24163702021815     -1.49493875500810      1.29051573740781
  H   -3.10910376490575      1.85893856792578     -2.11787243109679
  H   -1.69206334630658      3.41779303068546     -3.48700954500057
  H   0.79806309549372      3.42295546395481     -3.19619401105227
  H   1.86702908523027      1.84868756460127     -1.53242073899807
