274
cage_7-isoquinoline_1-4-phenyl_2-7-napthaly.xyz
Pd	9.997565	0.748304	0.495682
Pd	-9.873292	-0.770660	-0.521045
H	-7.665786	-2.772188	-0.785785
H	-11.712482	-2.698011	-1.881348
H	-11.589061	-4.997305	-2.859652
H	-7.922895	-8.162856	-3.348156
H	-10.136384	-7.066212	-3.408547
H	-6.192577	-4.718106	-1.347836
H	-2.665311	-7.423215	-0.522350
H	-4.891176	-6.366435	-0.451251
H	-5.878611	-8.214557	-4.262796
H	-3.653314	-9.253934	-4.332769
H	1.776908	-7.185075	-1.117082
H	-0.624533	-7.329288	-1.549736
H	-2.264389	-10.848698	-3.505644
H	0.003499	-11.814709	-3.703568
H	2.493847	-11.616390	-3.343377
H	4.431358	-10.335607	-2.519048
H	7.682056	-8.317270	-0.254369
H	5.755381	-9.595497	-1.040415
H	3.435817	-5.935576	-1.339136
H	5.328879	-4.661217	-0.459957
H	8.339009	-1.530128	-0.366706
H	11.852998	-1.206693	1.897278
H	11.904965	-3.668535	2.343186
H	8.811232	-7.262496	1.213842
H	10.725126	-5.973707	2.073559
H	7.187780	-3.704110	-0.684514
C	-8.508117	-3.298021	-1.263664
N	-9.684396	-2.660426	-1.300229
C	-10.774404	-3.271679	-1.870820
C	-10.692022	-4.542399	-2.414268
C	-8.031658	-7.151130	-2.931256
C	-9.276620	-6.545243	-2.961321
C	-9.457667	-5.247032	-2.406650
C	-8.318013	-4.597506	-1.804809
C	-7.054033	-5.246217	-1.784067
C	-6.882093	-6.516628	-2.346879
C	-3.355304	-7.573161	-1.366136
C	-4.616404	-6.973858	-1.327316
C	-5.561125	-7.184390	-2.361204
C	-5.187164	-8.041202	-3.424352
C	-3.920862	-8.631868	-3.466163
C	-2.966629	-8.406004	-2.444908
C	1.953047	-8.145917	-1.623834
C	0.817974	-8.853200	-2.109835
C	-0.499928	-8.323629	-2.005614
C	-1.610114	-9.003800	-2.514040
C	-1.400462	-10.279666	-3.131978
C	-0.132746	-10.827474	-3.236738
C	1.010117	-10.133745	-2.743356
C	2.336767	-10.642276	-2.856232
C	3.420897	-9.924022	-2.381683
C	3.253116	-8.647235	-1.751387
C	6.748272	-7.775402	-0.466048
C	5.651420	-8.505903	-0.934268
C	4.422787	-7.879289	-1.256315
C	4.359303	-6.473844	-1.082148
C	5.449266	-5.744992	-0.608733
C	6.679780	-6.372113	-0.291415
C	9.103120	-2.041929	0.239886
N	10.083707	-1.285601	0.751834
C	11.075731	-1.874001	1.499857
C	11.088541	-3.238134	1.743768
C	8.876402	-6.190003	0.979098
C	9.950163	-5.469264	1.476551
C	10.049033	-4.068278	1.242849
C	9.014334	-3.441352	0.457081
C	7.939786	-4.210422	-0.061010
C	7.831186	-5.582506	0.199596
H	-7.933990	-0.980335	1.749430
H	-11.898931	-2.204120	1.148841
H	-12.037227	-3.207702	3.436840
H	-8.790957	-3.618370	7.041798
H	-10.842651	-3.738396	5.668619
H	-6.705039	-1.516559	3.864988
H	-3.595492	-0.584668	7.007053
H	-5.665739	-0.590124	5.669278
H	-6.735959	-4.452340	7.361268
H	-4.664616	-4.444585	8.682041
H	0.874814	-1.054331	7.326496
H	-1.515630	-1.555323	7.165690
H	-3.534841	-3.557899	10.453874
H	-1.406162	-3.679238	11.708402
H	1.074873	-3.239014	11.832638
H	3.138719	-2.357606	10.804825
H	6.513938	0.088016	9.198411
H	4.464165	-0.757288	10.230341
H	2.709349	-1.332411	6.300680
H	4.721451	-0.397600	5.261806
H	8.128570	-0.219595	2.575899
H	11.500188	2.271327	2.640131
H	11.180785	2.799116	5.067133
H	7.697649	1.577803	8.247893
H	9.715500	2.521983	7.197860
H	6.707195	-0.542186	4.584558
C	-8.819678	-1.491962	2.159035
N	-9.902970	-1.558463	1.375516
C	-11.042613	-2.171152	1.837828
C	-11.105291	-2.727622	3.104076
C	-8.784336	-3.190920	6.028729
C	-9.939496	-3.254712	5.266968
C	-9.972023	-2.689107	3.961068
C	-8.779782	-2.042432	3.468116
C	-7.611120	-1.987590	4.274728
C	-7.584496	-2.558659	5.552994
C	-4.265727	-1.455759	7.062702
C	-5.438547	-1.460287	6.304287
C	-6.361693	-2.530852	6.386851
C	-6.061499	-3.585996	7.281631
C	-4.882451	-3.583951	8.032694
C	-3.947560	-2.525508	7.935770
C	0.936850	-1.552545	8.305857
C	-0.265306	-2.068731	8.865495
C	-1.506589	-2.005742	8.170120
C	-2.678590	-2.547920	8.704615
C	-2.616388	-3.156626	10.000618
C	-1.427777	-3.219222	10.708886
C	-0.220652	-2.691438	10.165250
C	1.031599	-2.760466	10.842790
C	2.184889	-2.255187	10.266961
C	2.163553	-1.638999	8.972763
C	5.679078	-0.199183	8.542090
C	4.514544	-0.699976	9.133140
C	3.406322	-1.113692	8.355085
C	3.533639	-1.000058	6.948079
C	4.691497	-0.495408	6.357536
C	5.801411	-0.083388	7.136193
C	8.773552	0.454478	3.161851
N	9.812424	1.011284	2.524629
C	10.664593	1.844545	3.211627
C	10.471801	2.133053	4.552828
C	7.925757	1.314112	7.205327
C	9.056140	1.858666	6.617599
C	9.362464	1.586783	5.254132
C	8.478353	0.709684	4.526366
C	7.341303	0.146480	5.162625
C	7.024318	0.448642	6.493458
H	-8.050155	1.563348	-0.080426
H	-12.104847	0.816028	0.680673
H	-12.424440	3.070549	1.718763
H	-9.353844	6.745819	2.591440
H	-11.364849	5.316553	2.440343
H	-6.954201	3.693948	0.644077
H	-3.840464	6.947660	0.196828
H	-5.857695	5.559518	-0.092797
H	-7.429440	7.083083	3.666676
H	-5.411022	8.454069	3.952893
H	0.526764	7.334456	1.222599
H	-1.901791	7.109040	1.419704
H	-4.227053	10.285622	3.263803
H	-2.159996	11.578578	3.682179
H	0.353740	11.766666	3.555288
H	2.531143	10.808188	2.910755
H	6.245797	9.347731	0.939702
H	4.078985	10.311368	1.528231
H	2.327727	6.338743	1.628614
H	4.468939	5.374213	0.945170
H	7.895147	2.723919	1.116788
H	11.677577	2.991263	-0.668841
H	11.405821	5.443566	-1.099778
H	7.689368	8.504326	-0.338469
H	9.863244	7.537163	-0.968847
H	6.402030	4.692581	1.308664
C	-8.999217	1.932864	0.339923
N	-10.057501	1.116377	0.268977
C	-11.272054	1.529536	0.760895
C	-11.435391	2.777794	1.337016
C	-9.270281	5.747355	2.138008
C	-10.402248	4.954445	2.049288
C	-10.332048	3.666490	1.447199
C	-9.060959	3.226611	0.923923
C	-7.918148	4.065172	1.022945
C	-7.993201	5.323611	1.632507
C	-4.612321	6.954114	0.981340
C	-5.755126	6.167734	0.819383
C	-6.800642	6.188493	1.774183
C	-6.653784	7.052174	2.886037
C	-5.505130	7.831320	3.050926
C	-4.448399	7.794768	2.109932
C	0.506767	8.298053	1.753956
C	-0.762591	8.815773	2.135358
C	-1.969919	8.098022	1.899243
C	-3.211827	8.589626	2.311094
C	-3.256107	9.865084	2.963151
C	-2.101510	10.594957	3.192077
C	-0.826414	10.094151	2.799436
C	0.391742	10.792545	3.044558
C	1.611728	10.255900	2.669838
C	1.698273	8.984173	2.013519
C	5.390269	8.668047	1.067809
C	4.154892	9.219512	1.422492
C	3.011988	8.409501	1.631068
C	3.179442	7.012587	1.457989
C	4.408290	6.462317	1.097205
C	5.554330	7.272009	0.898213
C	8.642077	3.360655	0.616424
N	9.784199	2.775085	0.232900
C	10.762201	3.524235	-0.376154
C	10.596138	4.879642	-0.612978
C	7.884928	7.447144	-0.108841
C	9.106342	6.906894	-0.477874
C	9.387006	5.530440	-0.244937
C	8.369520	4.736068	0.398965
C	7.137640	5.323174	0.787790
C	6.857042	6.671963	0.532827
H	-7.772896	-0.233113	-2.583540
H	-11.922729	0.332824	-2.398089
H	-11.984939	1.338372	-4.688870
H	-8.495537	2.310983	-7.941414
H	-10.668097	2.086579	-6.785921
H	-6.436280	0.520647	-4.562189
H	-2.910235	0.140294	-7.351512
H	-5.083644	-0.200674	-6.239214
H	-6.578060	3.455384	-8.061015
H	-4.405473	3.794299	-9.156077
H	1.430495	1.275581	-7.228176
H	-1.008744	1.406927	-7.311295
H	-2.966067	3.144382	-10.783649
H	-0.765803	3.626481	-11.802651
H	1.754548	3.587809	-11.662056
H	3.810373	3.015924	-10.428409
H	7.365691	1.155803	-8.501357
H	5.324978	1.699074	-9.731538
H	3.076252	1.707007	-6.016049
H	5.094027	1.069352	-4.789754
H	8.184745	1.383389	-1.741946
H	11.964320	-0.418076	-1.512534
H	11.994175	-0.886376	-3.969746
H	8.684182	-0.173727	-7.477658
H	10.724378	-0.785633	-6.240008
H	6.941471	1.540419	-3.883441
C	-8.682436	0.136827	-3.083440
N	-9.836574	0.018753	-2.416004
C	-11.006422	0.448693	-2.994400
C	-11.027242	1.007402	-4.261091
C	-8.523703	1.875864	-6.931859
C	-9.745630	1.745558	-6.292770
C	-9.820886	1.162400	-4.996437
C	-8.597470	0.705419	-4.382508
C	-7.359078	0.848286	-5.064313
C	-7.293290	1.434317	-6.334440
C	-3.702655	0.892112	-7.483979
C	-4.933580	0.701185	-6.852580
C	-6.002961	1.611082	-7.037615
C	-5.784616	2.708943	-7.903883
C	-4.548578	2.903351	-8.527192
C	-3.470742	2.007763	-8.326035
C	1.517803	1.803728	-8.189743
C	0.313946	2.144631	-8.867587
C	-0.967253	1.875349	-8.306888
C	-2.148723	2.242023	-8.957766
C	-2.048867	2.881599	-10.236517
C	-0.818108	3.145376	-10.814227
C	0.394156	2.799704	-10.149491
C	1.683531	3.081886	-10.687395
C	2.835740	2.747661	-9.996445
C	2.778932	2.096300	-8.720383
C	6.425736	1.251426	-7.937740
C	5.262145	1.581242	-8.640078
C	4.019101	1.748980	-7.982606
C	4.011411	1.567127	-6.576714
C	5.168967	1.231987	-5.875774
C	6.413222	1.069539	-6.533770
C	9.003884	0.872773	-2.272582
N	10.062333	0.494927	-1.543073
C	11.123017	-0.128922	-2.157534
C	11.123182	-0.387503	-3.518795
C	8.750809	0.074580	-6.408419
C	9.896777	-0.283153	-5.716628
C	10.006113	-0.026276	-4.320512
C	8.901699	0.633143	-3.667467
C	7.749962	1.009123	-4.407231
C	7.636293	0.726316	-5.774348
