222
cage_3-pyridine_1-4-napythyl_methylene.xyz
Pd	6.403149	0.078145	0.850545
Pd	-5.886518	-0.076777	-0.786156
H	-4.351810	0.926083	1.559146
H	-7.819789	2.212747	-0.413888
H	-8.068310	4.164400	1.156586
H	-6.337329	4.530192	2.950126
H	-0.666397	2.943794	3.464226
H	-2.566432	2.717105	1.893235
H	-6.542949	2.903201	4.704270
H	-6.940592	3.337598	7.100654
H	-5.009565	3.781342	8.647460
H	-2.696271	3.715925	7.796970
H	-0.690914	4.426407	6.522638
H	-0.932408	2.781788	7.099695
H	3.674621	4.446189	4.958053
H	1.391517	5.012738	5.736863
H	-0.960085	0.799093	5.960822
H	-0.350090	-1.566005	5.573771
H	1.977497	-2.164334	4.829169
H	3.668283	-0.396859	4.487100
H	4.067802	0.989306	2.482574
H	8.224913	1.393304	2.835518
H	7.990757	2.673263	4.989561
H	5.682782	3.078396	5.930559
C	-5.147324	1.683177	1.489626
N	-6.067525	1.513256	0.510107
C	-7.097681	2.386944	0.397484
C	-7.224768	3.468685	1.276743
C	-6.265791	3.661583	2.278489
C	-5.186116	2.754305	2.407917
C	-1.691832	2.993884	3.860276
C	-2.776865	2.842970	2.967550
C	-4.100737	2.899692	3.409183
C	-4.364854	3.109360	4.813898
C	-5.683736	3.107346	5.359161
C	-5.912739	3.340014	6.708060
C	-4.824182	3.577946	7.582232
C	-3.524860	3.541251	7.097122
C	-3.246320	3.292843	5.718387
C	-1.894894	3.210908	5.220122
C	-0.723059	3.370114	6.179851
C	2.937592	3.636799	5.079199
C	1.630390	3.961755	5.512083
C	0.649476	2.986019	5.670300
C	0.992700	1.610662	5.405520
C	0.052022	0.555236	5.609944
C	0.390430	-0.772184	5.393362
C	1.700781	-1.108584	4.971767
C	2.643458	-0.111359	4.765628
C	2.326136	1.268442	4.954145
C	3.295951	2.322520	4.773793
C	4.675274	2.060973	4.287155
C	4.911039	1.365337	3.081535
N	6.153016	1.141384	2.594905
C	7.235310	1.602615	3.268693
C	7.094416	2.313893	4.464173
C	5.811754	2.541495	4.978583
H	-3.971926	2.070124	-1.521294
H	-7.397352	0.489026	-3.346311
H	-7.149847	2.046766	-5.310107
H	-5.192052	3.631771	-5.386066
H	0.187069	3.513654	-2.976924
H	-1.891071	2.167449	-3.066915
H	-5.458021	5.413937	-3.749613
H	-5.519977	7.847282	-4.160147
H	-3.385955	9.173021	-4.256037
H	-1.216038	8.064267	-3.878116
H	0.722142	6.574867	-4.342769
H	0.303622	7.153163	-2.733834
H	4.828524	4.496747	-3.786786
H	2.755808	5.544725	-4.650899
H	-0.136310	6.002055	-0.812269
H	0.082123	5.537798	1.609213
H	2.203777	4.534054	2.515764
H	4.082167	4.011392	0.998003
H	4.434027	1.988980	-0.332922
H	8.619100	1.810084	-0.200872
H	8.824291	3.963380	-1.486376
H	6.726405	5.186963	-2.173049
C	-4.640167	2.082323	-2.395538
N	-5.682886	1.218424	-2.375771
C	-6.567329	1.208901	-3.402798
C	-6.419031	2.079985	-4.488243
C	-5.334848	2.965588	-4.521832
C	-4.404158	2.983210	-3.455609
C	-0.770133	4.025030	-3.157720
C	-1.958707	3.260475	-3.190105
C	-3.201943	3.852968	-3.421315
C	-3.274394	5.280888	-3.624956
C	-4.511182	5.971359	-3.801090
C	-4.553139	7.341208	-4.020400
C	-3.351612	8.090322	-4.063787
C	-2.133452	7.460467	-3.852796
C	-2.048194	6.054806	-3.614182
C	-0.787311	5.402755	-3.355759
C	0.494789	6.223863	-3.313304
C	4.003435	4.700463	-3.086395
C	2.815480	5.287764	-3.582181
C	1.729881	5.552916	-2.750865
C	1.840359	5.239166	-1.347630
C	0.785958	5.541211	-0.432423
C	0.904326	5.280275	0.924617
C	2.099026	4.712973	1.434636
C	3.146048	4.406126	0.576436
C	3.051971	4.635355	-0.830377
C	4.134378	4.347248	-1.741673
C	5.395554	3.693943	-1.305027
C	5.386663	2.474334	-0.593403
N	6.518059	1.836891	-0.215252
C	7.727082	2.362970	-0.531062
C	7.830140	3.559930	-1.246347
C	6.663054	4.231191	-1.631120
H	-3.763421	-1.042851	-2.625272
H	-7.610002	-2.398198	-1.665075
H	-7.396954	-4.337290	-3.256967
H	-5.243486	-4.657856	-4.525622
H	0.333677	-2.971034	-3.504358
H	-1.921378	-2.808290	-2.488804
H	-5.005425	-3.006998	-6.253932
H	-4.746983	-3.400879	-8.676576
H	-2.464429	-3.779404	-9.663731
H	-0.461788	-3.689091	-8.231096
H	1.153148	-4.404715	-6.464445
H	1.034566	-2.760282	-7.080592
H	4.959256	-4.343175	-3.819965
H	2.964889	-4.953191	-5.157571
H	0.649679	-0.788797	-5.964409
H	1.088078	1.586237	-5.430720
H	3.144952	2.230317	-4.133149
H	4.737844	0.499108	-3.384122
H	4.612553	-0.885410	-1.336260
H	8.724011	-1.183307	-0.580156
H	9.095046	-2.474731	-2.707699
H	7.128256	-2.934159	-4.223281
C	-4.533733	-1.813607	-2.777404
N	-5.685091	-1.667028	-2.079895
C	-6.693262	-2.555542	-2.252342
C	-6.563259	-3.628848	-3.141252
C	-5.368411	-3.796932	-3.851844
C	-4.308247	-2.873625	-3.681268
C	-0.549526	-3.032237	-4.157208
C	-1.835547	-2.917011	-3.582197
C	-2.993576	-2.987529	-4.359843
C	-2.872250	-3.174019	-5.787175
C	-3.999997	-3.183634	-6.661838
C	-3.859371	-3.393322	-8.026613
C	-2.572980	-3.594234	-8.584628
C	-1.449362	-3.545296	-7.772291
C	-1.550668	-3.320883	-6.365460
C	-0.381366	-3.226768	-5.525215
C	1.005978	-3.351942	-6.140296
C	4.260987	-3.548527	-4.126698
C	3.115829	-3.898167	-4.881190
C	2.186915	-2.942231	-5.285760
C	2.419642	-1.561613	-4.939349
C	1.536158	-0.525412	-5.371292
C	1.778815	0.807559	-5.074067
C	2.935914	1.169608	-4.339822
C	3.819020	0.191537	-3.904417
C	3.587667	-1.193813	-4.164181
C	4.501357	-2.228484	-3.740831
C	5.699623	-1.938957	-2.911300
C	5.592257	-1.240344	-1.689215
N	6.655982	-0.985411	-0.894040
C	7.888321	-1.418489	-1.256283
C	8.084023	-2.134661	-2.441233
C	6.988505	-2.394245	-3.274441
H	-4.159232	-2.163196	0.446356
H	-8.018437	-0.736298	1.248003
H	-8.272837	-2.322669	3.185828
H	-6.354491	-3.833824	3.801460
H	-0.513901	-3.507612	2.933198
H	-2.581234	-2.232221	2.451070
H	-6.095529	-5.602363	2.186622
H	-6.186089	-8.030930	2.602587
H	-4.118310	-9.277259	3.305773
H	-1.964902	-8.093932	3.509832
H	-0.269147	-6.537507	4.445009
H	-0.226461	-7.142515	2.793039
H	3.802394	-4.381098	4.952102
H	1.597820	-5.469372	5.258440
H	-0.195666	-5.990180	0.801554
H	0.633998	-5.523252	-1.480883
H	2.902640	-4.488243	-1.813096
H	4.313219	-3.928837	0.134733
H	4.244040	-1.875539	1.516978
H	8.331654	-1.619181	2.410245
H	8.258957	-3.777927	3.699279
H	6.078980	-5.042656	3.854255
C	-5.045120	-2.214176	1.096922
N	-6.071869	-1.384143	0.794185
C	-7.210231	-1.427754	1.528516
C	-7.339672	-2.314498	2.603784
C	-6.274459	-3.160765	2.934746
C	-5.082031	-3.128479	2.171444
C	-1.468956	-4.049560	2.863598
C	-2.646579	-3.326214	2.567255
C	-3.888077	-3.958130	2.467330
C	-3.967141	-5.387181	2.663845
C	-5.180849	-6.121688	2.506412
C	-5.235684	-7.490740	2.728246
C	-4.068330	-8.195540	3.111432
C	-2.860077	-7.523665	3.227835
C	-2.759345	-6.117981	2.996273
C	-1.495832	-5.425499	3.072744
C	-0.224711	-6.203103	3.386478
C	3.189921	-4.601953	4.063849
C	1.925519	-5.212067	4.239565
C	1.096750	-5.501031	3.158257
C	1.559698	-5.186993	1.828687
C	0.784726	-5.511844	0.673248
C	1.246619	-5.251101	-0.608351
C	2.522354	-4.663050	-0.795277
C	3.304886	-4.333954	0.302605
C	2.851903	-4.559745	1.638348
C	3.655711	-4.247502	2.796164
C	4.973020	-3.567892	2.690146
C	5.113788	-2.343286	2.001777
N	6.290560	-1.682338	1.913163
C	7.396200	-2.189835	2.511593
C	7.344748	-3.389775	3.227637
C	6.131781	-4.084657	3.315206
