150
cage_3-pyridine_amide2_2-6-pyridine.xyz
Pd	5.276115	-0.014261	-0.215180
Pd	-4.199462	0.023818	0.181712
H	-2.581048	-0.493056	2.718477
H	-5.888386	-2.302259	0.891746
H	-6.181529	-3.906042	2.799061
H	-4.607225	-3.720349	4.801676
H	-0.929209	-1.411229	4.131437
H	2.311280	-0.449790	8.685971
H	0.005502	-1.211161	9.491226
H	-1.758762	-1.745695	7.768508
H	2.389082	-0.550380	4.276098
H	3.443964	-0.471123	2.112806
H	7.340192	1.012550	1.677954
H	7.569082	1.325306	4.168385
H	5.623237	0.745188	5.678458
C	-3.339998	-1.288790	2.773071
N	-4.212405	-1.354610	1.730327
C	-5.200582	-2.286104	1.749853
C	-5.360430	-3.173592	2.819688
C	-4.488549	-3.086238	3.908724
C	-3.442848	-2.137610	3.886419
O	-3.177400	-2.325049	6.219130
C	-2.632762	-2.008330	5.169520
N	-1.346967	-1.526067	5.058254
C	1.499301	-0.701387	7.989240
C	0.230772	-1.115631	8.418179
C	-0.757730	-1.412120	7.472938
C	-0.424395	-1.279739	6.104826
N	0.790843	-0.899269	5.675647
C	1.726880	-0.615495	6.606627
O	3.971014	0.173893	6.916511
C	3.094210	-0.176404	6.141749
N	3.238767	-0.217938	4.751678
C	4.362199	0.114814	4.014847
C	4.332577	-0.052137	2.609999
N	5.380610	0.266975	1.819155
C	6.519184	0.758117	2.363585
C	6.630893	0.933154	3.748848
C	5.561510	0.617778	4.589046
H	-2.659778	2.620448	0.607818
H	-5.788621	0.674272	2.601531
H	-6.069400	2.577479	4.211395
H	-4.592275	4.641311	3.930750
H	-1.010475	4.100833	1.457045
H	1.999968	8.772067	0.317533
H	-0.306237	9.491654	1.159354
H	-1.976814	7.704818	1.777938
H	2.255626	4.369429	0.442614
H	3.384992	2.246108	0.321143
H	7.228498	1.951030	-1.325673
H	7.353923	4.447326	-1.646511
H	5.379704	5.886909	-0.986366
C	-3.375892	2.648898	1.443452
N	-4.201278	1.572647	1.560258
C	-5.136898	1.558406	2.544308
C	-5.291057	2.626685	3.434940
C	-4.470718	3.749736	3.295285
C	-3.477541	3.762729	2.291709
O	-3.305626	6.106969	2.433331
C	-2.729792	5.076651	2.108757
N	-1.461745	5.011508	1.573721
C	1.227193	8.045971	0.606595
C	-0.041001	8.427688	1.065539
C	-0.977856	7.446498	1.409270
C	-0.593876	6.091599	1.277937
N	0.621669	5.707825	0.852994
C	1.507133	6.672822	0.523854
O	3.705617	7.064328	-0.353250
C	2.873551	6.258509	0.034247
N	3.072869	4.875282	0.075186
C	4.207913	4.179606	-0.303180
C	4.236539	2.774898	-0.134687
N	5.298093	2.022109	-0.497784
C	6.394514	2.606630	-1.036360
C	6.448490	3.994839	-1.215667
C	5.363431	4.796216	-0.855956
H	-2.796035	0.504099	-2.483508
H	-5.903644	2.382358	-0.393265
H	-6.335335	3.975040	-2.282439
H	-4.947166	3.746266	-4.412946
H	-1.250209	1.415976	-4.038854
H	1.577525	0.360541	-8.841234
H	-0.786672	1.121126	-9.455520
H	-2.392964	1.690772	-7.594673
H	2.031782	0.514349	-4.455640
H	3.261899	0.441937	-2.385798
H	7.179940	-1.043217	-2.269122
H	7.200086	-1.371008	-4.767486
H	5.134916	-0.798353	-6.113778
C	-3.543819	1.312054	-2.478179
N	-4.321715	1.399847	-1.364332
C	-5.292496	2.347863	-1.306912
C	-5.530749	3.229179	-2.367523
C	-4.759133	3.118230	-3.527753
C	-3.729757	2.153389	-3.586500
O	-3.673791	2.293098	-5.936686
C	-3.037655	1.995826	-4.933925
N	-1.747574	1.512321	-4.927525
C	0.829750	0.626674	-8.081047
C	-0.469527	1.040843	-8.404819
C	-1.371144	1.356939	-7.382205
C	-0.920855	1.243655	-6.046176
N	0.325078	0.862573	-5.718037
C	1.175768	0.560053	-6.722147
O	3.384110	-0.239098	-7.212678
C	2.576412	0.121201	-6.370206
N	2.837708	0.174857	-4.997753
C	4.017846	-0.155722	-4.354920
C	4.105356	0.018842	-2.953359
N	5.215322	-0.297086	-2.250871
C	6.304336	-0.792325	-2.885207
C	6.300057	-0.975564	-4.273875
C	5.164564	-0.664139	-5.023897
H	-2.715343	-2.585482	-0.394335
H	-6.006404	-0.609576	-2.073120
H	-6.453095	-2.503652	-3.656940
H	-4.966648	-4.576470	-3.529267
H	-1.169438	-4.073200	-1.375838
H	1.890305	-8.769594	-0.510607
H	-0.474022	-9.469703	-1.192473
H	-2.175129	-7.668464	-1.671336
H	2.167190	-4.368116	-0.629880
H	3.324088	-2.256268	-0.599385
H	7.288523	-2.000037	0.738200
H	7.410778	-4.496503	1.058101
H	5.375658	-5.915756	0.558177
C	-3.508238	-2.605164	-1.157968
N	-4.333702	-1.523304	-1.191540
C	-5.359098	-1.498587	-2.082135
C	-5.604417	-2.561119	-2.958910
C	-4.780658	-3.689132	-2.903606
C	-3.696849	-3.713624	-1.998628
O	-3.547295	-6.056609	-2.187817
C	-2.941838	-5.032703	-1.898446
N	-1.633282	-4.980044	-1.470696
C	1.102937	-8.036933	-0.737115
C	-0.196993	-8.408045	-1.107356
C	-1.150766	-7.418988	-1.372730
C	-0.751197	-6.067358	-1.254827
N	0.494695	-5.693549	-0.917716
C	1.396302	-6.666041	-0.663412
O	3.649921	-7.077339	0.048684
C	2.797757	-6.263646	-0.273215
N	3.004743	-4.881832	-0.324655
C	4.172513	-4.197240	-0.036079
C	4.202756	-2.793166	-0.209470
N	5.297715	-2.051296	0.066720
C	6.426755	-2.646852	0.518800
C	6.479486	-4.035088	0.697867
C	5.360939	-4.825234	0.426788
