174
Coordinates from ORCA-job cage_L-5_quinone_orca_opt
  C   6.30066893464801      0.06288672074244     -3.64145807256574
  C   5.11336915802893      0.04958455184565     -4.41450198521283
  C   4.09603198166394      0.04240110184102     -5.11277028315352
  C   2.92968533219740      0.04322590050590     -5.92576832608616
  C   3.04056836163387      0.10085380106854     -7.35827478731819
  C   1.90574737899066      0.11206692649062     -8.14839270029883
  C   0.60216923496922      0.06958836898133     -7.57061104429704
  C   -0.58506523741746      0.08828270577299     -8.36138439677559
  C   -1.83721287014360      0.05262814368551     -7.77512442503434
  C   -1.96860088092286     -0.00508117692754     -6.34449909657979
  C   -3.25414249317828     -0.02730117446691     -5.73759633337072
  C   -4.37109960941033     -0.03645024876741     -5.21324911802212
  C   -5.66421428662307     -0.03598111927422     -4.63412667172941
  C   -6.84669571521667     -0.01220076914203     -5.42422393902691
  C   -8.09447490862030     -0.00655242002941     -4.79784581385254
  C   -8.16416348718304     -0.02385057360295     -3.39887701039668
  N   -7.04110812079004     -0.04866328610478     -2.64008188934735
  C   -5.82503910184774     -0.05576148658847     -3.22442065373981
  C   -0.81418429293533     -0.02976855038219     -5.54763360625157
  C   0.48039629755495      0.00909272040915     -6.13148971822164
  C   1.65768522770950     -0.00516256954053     -5.33614139256149
  C   7.59018841278084      0.08231353210738     -4.24109439555334
  C   8.72712985001487      0.09808137247695     -3.43117433326001
  C   8.58198532770109      0.09493308858262     -2.03803918366666
  N   7.35592628259806      0.07625934896551     -1.46009038093907
  C   6.24363098700120      0.06014753947095     -2.22354614122640
  H   4.03861809996512      0.13641088473143     -7.81766842779975
  H   2.00259008607554      0.15899028497931     -9.24431034532146
  H   -0.49352776224010      0.13297116716781     -9.45774873282461
  H   -2.74388895528804      0.07209920716263     -8.39624020464069
  H   -6.76631643624370      0.00263788595046     -6.52133143608648
  H   -9.02362405014495      0.01208381746520     -5.38554823984686
  H   -9.12847977883071     -0.01743703476966     -2.86916907964183
  H   -4.94621538272176     -0.07899875441768     -2.56173043976819
  H   -0.91390190205563     -0.07857369083999     -4.45206916075458
  H   1.56839555944010     -0.05364460117012     -4.23984279267758
  H   7.67992527406894      0.08457913477761     -5.33755264682000
  H   9.73525907215777      0.11317427612002     -3.87020912963175
  H   9.45453441865521      0.10760409077378     -1.36797229356735
  H   5.27409629779581      0.04403997842558     -1.70222102610790
  C   6.02196076042277     -4.08484263628114      0.49446811417923
  C   4.78793056042210     -4.77558044568947      0.40656521507175
  C   3.72728373865184     -5.40085131511976      0.32382066413339
  C   2.50864685849494     -6.12556605609258      0.21843911246993
  C   2.51365482708842     -7.56335745123711      0.19857129496051
  C   1.32738812702287     -8.26574280092186      0.08940430354887
  C   0.07436372717780     -7.59062681587870     -0.00578372686550
  C   -1.16373979811449     -8.28971767294408     -0.12127076580303
  C   -2.36464113650794     -7.61023111802867     -0.21431435915866
  C   -2.39022856435139     -6.17265817927004     -0.19565684534045
  C   -3.62307395552299     -5.47117042600677     -0.29306729828590
  C   -4.69425673160329     -4.86550520478213     -0.38532609534141
  C   -5.93950639298918     -4.19934596508106     -0.50115684140884
  C   -7.16598788420995     -4.90904586946025     -0.62353892437530
  C   -8.36410313995775     -4.20089042329295     -0.73389487478710
  C   -8.34137454441750     -2.80032222844727     -0.72171100674887
  N   -7.17587344101501     -2.11789845910543     -0.60506508606530
  C   -6.00616235207319     -2.78189977521521     -0.49780360407021
  C   -1.18446279697038     -5.46483619496056     -0.08188051605154
  C   0.05897035396706     -6.14522555554993      0.01387675043854
  C   1.28769607590088     -5.44104429798981      0.12665935675418
  C   7.26672930624125     -4.76951943745415      0.56160690953275
  C   8.45298526796003     -4.03740226190287      0.63836273577994
  C   8.40073213425085     -2.63762092484850      0.64582426138928
  N   7.21752909822954     -1.97895586941055      0.58394123301288
  C   6.05868353475496     -2.66638470791914      0.51271307233665
  H   3.47209567446358     -8.09676342117801      0.27012717570319
  H   1.34233984611454     -9.36668371615430      0.07344310369084
  H   -1.15440669975845     -9.39069918508330     -0.13662363296564
  H   -3.31117453698833     -8.16170672207777     -0.30449441631650
  H   -7.15875600425663     -6.00910340366452     -0.63060324871635
  H   -9.32567826515672     -4.72555627552271     -0.83069809246412
  H   -9.26510857659393     -2.20870429907819     -0.80704439303056
  H   -5.08917299786589     -2.17993290445762     -0.40318993431623
  H   -1.20180792384578     -4.36392478158441     -0.06581003820005
  H   1.28077391338225     -4.34005617226472      0.14079654039451
  H   7.28324271898222     -5.86947015393817      0.55129822531976
  H   9.42818669846363     -4.54284071568358      0.69195337877783
  H   9.31467720242047     -2.02747330572329      0.70173734753025
  H   5.12605361165577     -2.08284874548446      0.46772690169435
  C   5.66378556410580      0.04058872805652      4.62878164031249
  C   4.37100463635551      0.01425132180968      5.20817642443315
  C   3.25412809550587     -0.01319021866529      5.73202573994012
  C   1.96868531457831     -0.05437594044618      6.33822695270566
  C   1.83766701581336     -0.14484531575789      7.76715181093253
  C   0.58567590871388     -0.19712406755477      8.35252650801004
  C   -0.60169405015889     -0.16352762766367      7.56246082759644
  C   -1.90501130680358     -0.22224685942140      8.13939646931551
  C   -3.04011446875511     -0.19415473425403      7.35006764308362
  C   -2.92965357271929     -0.10343699346746      5.91927873113012
  C   -4.09623444383995     -0.08614488303578      5.10677249928002
  C   -5.11373744564176     -0.08107189840507      4.40875045504909
  C   -6.30103726276052     -0.08539488198806      3.63552758637511
  C   -7.59061401457606     -0.10811870725379      4.23489073905465
  C   -8.72743458851150     -0.11644200147941      3.42467455227976
  C   -8.58208762324251     -0.10223818098519      2.03163156614645
  N   -7.35594721702496     -0.07985268302780      1.45400754742772
  C   -6.24373169622928     -0.07090170647460      2.21770182204748
  C   -1.65790577874792     -0.03847269403510      5.33061488544263
  C   -0.48033370645393     -0.06905915170339      6.12509810756727
  C   0.81410515081332     -0.01404175230198      5.54217983630735
  C   6.84661864453826      0.05365979100626      5.41854900430653
  C   8.09392906076704      0.07540992814710      4.79155239351857
  C   8.16274008103867      0.08292304453337      3.39245193472873
  N   7.03925480641724      0.07033290033496      2.63396380323774
  C   5.82363466432724      0.05072666825721      3.21884255624183
  H   2.74444466574760     -0.17398244225162      8.38773145247379
  H   0.49444223199914     -0.26875158195299      9.44745324417162
  H   -2.00141171336764     -0.29370484743584      9.23399378664180
  H   -4.03795300699861     -0.24291486376903      7.80869227806306
  H   -7.68044790952120     -0.12042954179720      5.33127288605349
  H   -9.73568329820611     -0.13374192858993      3.86334558397393
  H   -9.45451016043774     -0.10947677899978      1.36136488305766
  H   -5.27396562699023     -0.05127978704025      1.69683844261292
  H   -1.56965782908624      0.03641205626894      4.23574873130008
  H   0.91385984916690      0.06042284332940      4.44809188628399
  H   6.76693635773059      0.04673216321258      6.51578638587792
  H   9.02345146950610      0.08623611306540      5.37886046348428
  H   9.12668958662755      0.09915504041413      2.86233306427004
  H   4.94382106709078      0.04187172773242      2.55702105795056
  C   5.93805667649599      4.20837851303073      0.51998319315757
  C   4.69002637283900      4.87495743752446      0.44331930040045
  C   3.61661009745982      5.48043674120401      0.38033780540095
  C   2.38105474806174      6.18089340756339      0.31474756273702
  C   2.34928791442258      7.61585383941271      0.40160772687337
  C   1.14550289065535      8.29385636266902      0.34058121005460
  C   -0.08957116911750      7.59573503355061      0.19130538995990
  C   -1.34566841431625      8.26892084034822      0.12843985281057
  C   -2.52873095542865      7.56715021499127     -0.01446325218784
  C   -2.51759922239345      6.13180215394835     -0.10132777249624
  C   -3.73355754533273      5.40757771034894     -0.23665481879563
  C   -4.79226129128921      4.78255367042762     -0.34304619575658
  C   -6.02495627552668      4.09257003181983     -0.45293935036236
  C   -7.26931231248560      4.77773793161642     -0.52329064280102
  C   -8.45466766150807      4.04633279028849     -0.61872460185327
  C   -8.40191304444003      2.64672779045981     -0.64187496105030
  N   -7.21913133016342      1.98762781583886     -0.57699585288679
  C   -6.06108563510368      2.67440877123573     -0.48822369581275
  C   -1.29351951681811      5.44933400618692     -0.04265711851537
  C   -0.06795676259792      6.15298798995425      0.10331487635998
  C   1.17831765805687      5.47411896238306      0.16731021005391
  C   7.16812924874569      4.91765914782597      0.60226858263706
  C   8.36899937486485      4.20925300427976      0.67391033803848
  C   8.34537092669058      2.80868045930180      0.66417127580139
  N   7.17630871524811      2.12664313286100      0.58812122083375
  C   6.00393547707680      2.79087151795420      0.51761550214800
  H   3.29341332992308      8.16642825078103      0.51834284896533
  H   1.13109008498346      9.39259780458928      0.41069902017053
  H   -1.36567773739199      9.36774167379740      0.19653116767749
  H   -3.48968531300209      8.09903362648406     -0.05887494092443
  H   -7.28636331070466      5.87743426309283     -0.49809868214007
  H   -9.42944266103610      4.55216557146526     -0.67630268157769
  H   -9.31525621373116      2.03711027240623     -0.71168334302043
  H   -5.12881291414598      2.09044914908669     -0.44156004124838
  H   -1.28054906521472      4.35043856045236     -0.10982829464487
  H   1.20004506529859      4.37540257526012      0.09816834986569
  H   7.16153584546184      6.01773785852303      0.60792994998160
  H   9.33338126608171      4.73378071194184      0.73819254769961
  H   9.27129234454392      2.21670557389253      0.71882930698443
  H   5.08404098384625      2.18882986124103      0.45740087426360
  Pd  7.19161662636907      0.07383723261478      0.58631946808728
  Pd  -7.19260227081265     -0.06503157897105     -0.59263561264573
  O   2.67893977580444      0.04174648240578      0.25671812202454
  C   1.44775622092644      0.02423686214946      0.14310873717238
  C   0.60845738566838     -0.93799631324145      0.90929653926331
  C   -0.74406114631283     -0.95833456883256      0.78475473689394
  C   -1.45613319678190     -0.01826912438110     -0.12416410102728
  C   -0.61679551467851      0.94320943574031     -0.89112939493128
  C   0.73570203201358      0.96378781608072     -0.76629081821801
  O   -2.68741690680229     -0.03451572852897     -0.23719602328338
  H   1.14596700122146     -1.62925675582955      1.57853180905879
  H   -1.37380558446777     -1.66718698366869      1.34620540311783
  H   -1.15401858953322      1.63397477799312     -1.56104719745040
  H   1.36534798493829      1.67181801309837     -1.32881487241923
