225
Coordinates from ORCA-job cage_L-3_methylquinone_orca_opt
  C   -2.38084711562435     -7.84614751938732      2.50574558861221
  C   -3.62057823006039     -7.19028146885096      2.26567044971672
  C   -4.71020971842913     -6.64400437766005      2.06833389943123
  C   -5.97235638793030     -6.02994531951958      1.85516680886632
  C   -7.17096054951871     -6.73260660063146      2.08502185427615
  C   -8.43665532333054     -6.13385909346486      1.87908873217948
  C   -8.54372834638860     -4.81957676593388      1.44213834269619
  C   -7.35953640132452     -4.06620079962945      1.19819602613902
  C   -6.06207393806477     -4.66133184773451      1.40115181711117
  C   -4.92432211616921     -3.85275014023884      1.14118985226920
  C   -5.07083806347612     -2.54589527876096      0.71289759581889
  N   -6.31305350142685     -1.98852112294387      0.52287695714091
  C   -7.40960840946976     -2.71718918716420      0.75451101756078
  C   -1.16272743286500     -7.19606708245848      2.25051975607756
  C   0.08131596070147     -7.84057824603052      2.49191720677628
  C   1.32061082482719     -7.19127898948876      2.24089770938322
  C   2.54364454894426     -7.83763053474008      2.48413909295180
  C   3.77746412726855     -7.17778800357154      2.22703941499546
  C   4.85831328697593     -6.62682392921266      1.99765968752364
  C   6.10811623860936     -6.01199355924502      1.72451276018945
  C   6.17734627867065     -4.62111134105144      1.33932092202052
  C   5.03355321153424     -3.78704300106375      1.23569337722082
  C   5.15791956581715     -2.46204785880236      0.85972676049243
  N   6.38451193348080     -1.91033828635611      0.57527848375124
  C   7.48707336299887     -2.66044211697422      0.66470041932518
  C   7.45888147347060     -4.02885377140272      1.04716839203434
  C   8.64876702169106     -4.80560334445017      1.14472251501456
  C   8.56265018347680     -6.13841071365467      1.52798075935121
  C   7.31235207845965     -6.73565035314612      1.81511461107074
  C   2.53531529637510     -9.18067689013206      2.99595950400175
  C   1.33901669777217     -9.82923061580076      3.24689890810589
  C   0.08650029497634     -9.19024348429148      3.00749898304302
  C   -1.16130675609725     -9.83379464972716      3.25769357037182
  C   -2.36222006100516     -9.18915064711000      3.01759388653392
  H   -7.11482607014334     -7.77330106701410      2.43450059934320
  H   -9.34460928737185     -6.72396548957516      2.07428741569168
  H   -9.52927832307560     -4.35764587865645      1.28114926651923
  H   -3.91841444892890     -4.27399135661558      1.28340774424228
  H   -4.20930922895595     -1.89174734453518      0.50674163443525
  H   -8.38488750149506     -2.23097843500033      0.59125572714114
  H   -1.16654199904174     -6.16913254505611      1.85619327667905
  H   1.31675825815296     -6.16427885883127      1.84617258190346
  H   4.04133495455816     -4.20380877334078      1.46055459104163
  H   4.29265173885683     -1.78496897172789      0.77781211248314
  H   8.44905171656552     -2.17734227103599      0.43094945133715
  H   9.62253284809672     -4.34642903055533      0.91815739253210
  H   9.47554353391013     -6.74497158858310      1.61363135955107
  H   7.27251868811337     -7.79322678661574      2.11312956285459
  H   3.49281648820803     -9.68581371967914      3.18580068200150
  H   1.34491507090723    -10.85710771035529      3.63909386539826
  H   -1.15983181928411    -10.86193416598132      3.64921690679503
  H   -3.31594415048047     -9.69738274059955      3.21648070513613
  C   -2.53532672898917      2.60210220311409      7.76415901470241
  C   -3.76243950041807      2.37655576558145      7.07979642390122
  C   -4.84002010820903      2.18417525322086      6.50840560282420
  C   -6.08899325563424      1.96549267842495      5.86979263996512
  C   -7.30192638456215      2.19518432711551      6.54712819456477
  C   -8.55482044499578      1.98016573275187      5.92507701073636
  C   -8.63460443944535      1.53194745186659      4.61257550753163
  C   -7.43503378361577      1.28805944730666      3.88397042535768
  C   -6.15027435277060      1.50121710299928      4.50290076306593
  C   -4.99605245327263      1.23887547284964      3.71898085544060
  C   -5.11582552165020      0.79902826707753      2.41313702049385
  N   -6.34546917875740      0.60111515650699      1.83202741976347
  C   -7.45709113753943      0.83488096490229      2.53728720634107
  C   -1.30547240004654      2.34514533793768      7.13692451065493
  C   -0.07369923108769      2.56880286943559      7.81094401294061
  C   1.17733238754705      2.31696041374712      7.18444576610547
  C   2.38822742627490      2.54382915111797      7.85893214322596
  C   3.63382439392757      2.29263936590132      7.21871415508398
  C   4.72536053586478      2.07828626756776      6.68231431309172
  C   5.98702191933423      1.82275924519343      6.08423113440268
  C   6.07850258705200      1.41501364321051      4.70109424399862
  C   4.94378137140279      1.25178362085982      3.86388584898619
  C   5.09217738099621      0.86228270409797      2.54523855155678
  N   6.33016957829541      0.62167486120683      1.99947017763854
  C   7.42368998324249      0.76265036474574      2.75631033526085
  C   7.37324330209634      1.15885158963485      4.12049081313517
  C   8.55421880960359      1.30673963522264      4.90306039804866
  C   8.44615635819778      1.70360401855814      6.23034898786815
  C   7.18324915276317      1.96023290429391      6.81488627555203
  C   2.35516227488786      3.03877736824154      9.20818772347808
  C   1.14702051809072      3.29033424794127      9.83485286064278
  C   -0.09358188319229      3.06792669752978      9.16678834690121
  C   -1.35309184696724      3.32053980664361      9.78671024179114
  C   -2.54172259211775      3.09807209802315      9.11350542605807
  H   -7.26735135528927      2.55158979924747      7.58639547600531
  H   -9.47462313764974      2.17316428627367      6.49670303145135
  H   -9.61045668698153      1.36543208578607      4.13230059992032
  H   -3.99878951445791      1.38978533173195      4.15688909645919
  H   -4.24043194655726      0.58604974966103      1.78070651342556
  H   -8.42197885185987      0.66406496273050      2.03360939103426
  H   -1.28992163904867      1.96358261904899      6.10515690718309
  H   1.19223587620209      1.93869850982973      6.15161032535228
  H   3.94010445237163      1.44105212932592      4.27118870507576
  H   4.22895217905090      0.72629683875246      1.87778255787404
  H   8.39675234178731      0.55900918532551      2.28160186530713
  H   9.53818320213826      1.10571968553845      4.45325876188085
  H   9.35193189022281      1.82464797898591      6.84281598307305
  H   7.12698426102281      2.27558421756022      7.86649962744739
  H   3.30314111728505      3.21676303498982      9.73507657134496
  H   1.13388838917817      3.66955552300073     10.86762694292200
  H   -1.37075861442390      3.70150038539183     10.81883866249351
  H   -3.50464913678807      3.29762838715091      9.60409256942965
  C   -2.51196980268374      7.88123748181892     -2.55767037622239
  C   -3.74461893109918      7.19860912328454     -2.36193655670035
  C   -4.82507144823526      6.62350210692145     -2.19926830837501
  C   -6.07640504546098      5.97916158118790     -2.01595713780961
  C   -7.28689148428376      6.66206646724369     -2.24199684450690
  C   -8.54151395844190      6.03382001238208     -2.05790103062917
  C   -8.62524002595509      4.71041436818530     -1.64340601207376
  C   -7.42813143094264      3.97631268946565     -1.40399370345533
  C   -6.14167439466165      4.60033645205739     -1.58853783850109
  C   -4.98954980362465      3.80985870169638     -1.33696875911679
  C   -5.11222748518657      2.49333630652534     -0.93086717976613
  N   -6.34413829952756      1.91020760533911     -0.75232446525654
  C   -7.45386872317475      2.62018482699976     -0.98001262816524
  C   -1.28974860746559      7.24314890660121     -2.28921818521911
  C   -0.05085944142384      7.91143203123568     -2.48682950662520
  C   1.19212128968169      7.27259195799500     -2.22601304044444
  C   2.41053891850309      7.94089792381948     -2.43011152086946
  C   3.64818884975833      7.28760928057308     -2.17437487103739
  C   4.73419558787536      6.74349509390018     -1.95288407983560
  C   5.99038668048476      6.13633223895318     -1.69228659159336
  C   6.07442406971040      4.75025810795564     -1.29387073330266
  C   4.93643737184760      3.91514824673781     -1.14388338653888
  C   5.07870492503719      2.59188292374059     -0.76794392341583
  N   6.31454547450407      2.04151658992017     -0.52670985102646
  C   7.41114319313369      2.79551938784512     -0.65593918972154
  C   7.36635853627371      4.16334916472957     -1.03837085860763
  C   8.55062317095526      4.94315323347235     -1.17245199665141
  C   8.44936605399288      6.27425935126438     -1.55760443725845
  C   7.18950896449637      6.86468095269158     -1.81524519249211
  C   2.39312713648359      9.29664424397015     -2.90710656214129
  C   1.19286589733771      9.93570820139552     -3.16540972739992
  C   -0.05493828499993      9.27350019844983     -2.96901377353555
  C   -1.30668339482941      9.90502492235870     -3.23114711558235
  C   -2.50281144982253      9.23682860501162     -3.03522234441715
  H   -7.24892947502498      7.71078013226357     -2.56928685105962
  H   -9.45958584223366      6.60954160878072     -2.24694451941354
  H   -9.60263224277745      4.22567961877222     -1.50006257737898
  H   -3.99141021442972      4.25171592722917     -1.46992997895635
  H   -4.23836224605693      1.85317289760418     -0.73297047193965
  H   -8.42007222367142      2.11337243360718     -0.82643708150148
  H   -1.28642432792556      6.20736894552408     -1.91850600797214
  H   1.19483358624746      6.23588391875841     -1.85748090291297
  H   3.93476834127918      4.32747923089534     -1.33321730833530
  H   4.21653185167758      1.91731795170579     -0.65432974307159
  H   8.38203291030478      2.31581928567479     -0.45321395372874
  H   9.53170821021914      4.48680355301665     -0.97354845300039
  H   9.35767342535365      6.88609023652448     -1.66465384760062
  H   7.13759239750067      7.91951932300958     -2.12044990659663
  H   3.34699972393413      9.81915077407824     -3.06573547995775
  H   1.19211820328202     10.97302560782090     -3.53244659683918
  H   -1.31219675333730     10.94237933903637     -3.59790969319213
  H   -3.45946532567778      9.73599690069748     -3.24354874341083
  C   -2.38683236129190     -2.56628223712435     -7.94102248047958
  C   -3.63325825815720     -2.36767836293067     -7.28453645197433
  C   -4.72481930165323     -2.20561368812844     -6.73052563990843
  C   -5.98605021197200     -2.02852709837052     -6.10375978592123
  C   -7.18544724338470     -2.29620293349329     -6.79080374248148
  C   -8.44887951446989     -2.12651766812217     -6.17637381352641
  C   -8.55274836626822     -1.68608595758570     -4.86290713340958
  C   -7.36743147372056     -1.40136839559949     -4.12584670271243
  C   -6.07237674502027     -1.56812500748143     -4.73669024480807
  C   -4.93290513594164     -1.26266832511777     -3.94660904683473
  C   -5.07575817122559     -0.82670510686622     -2.64180789990575
  N   -6.31524697425078     -0.67863538519048     -2.06678774240610
  C   -7.41358841951365     -0.95307010733976     -2.77808939688028
  C   -1.17823950269109     -2.28477553282880     -7.28297644058653
  C   0.07414846826957     -2.48555013573659     -7.92475580949030
  C   1.30320630717248     -2.20793220134701     -7.26671897693685
  C   2.53530539347064     -2.41410260856626     -7.90886315499942
  C   3.75929033985785     -2.13928456402344     -7.23779067381795
  C   4.83433880141717     -1.92401171138068     -6.66966865474642
  C   6.08448010351775     -1.70949072912668     -6.03247281293308
  C   6.15082042783027     -1.29454819572492     -4.64995572345158
  C   4.99990611793536     -1.07932879005897     -3.84670160479885
  C   5.12435584087440     -0.68615146360813     -2.52622163945906
  N   6.35758738963654     -0.49318458785267     -1.94913244071376
  C   7.46603373961675     -0.68357443149619     -2.67223128259151
  C   7.43812875830330     -1.08570330979967     -4.03468905848895
  C   8.63458742591376     -1.28467921421698     -4.78173079810980
  C   8.54973179884376     -1.68623352473922     -6.10894865891078
  C   7.29474785374381     -1.89635094368321     -6.72792673244001
  C   2.54652320432160     -2.90993123474573     -9.25805109431772
  C   1.36001216457977     -3.18419486909347     -9.91593102238354
  C   0.09873740653056     -2.98520836257852     -9.28025904216716
  C   -1.13940695513361     -3.26136814469005     -9.93211647671063
  C   -2.34919993251900     -3.06122340411543     -9.28987338307919
  H   -7.13198354737653     -2.64674288393855     -7.83127050490908
  H   -9.35750936590039     -2.34867936529397     -6.75501022000460
  H   -9.53694694324336     -1.55590197190934     -4.38847532925032
  H   -3.92838086854022     -1.37343577767142     -4.38057540708140
  H   -4.21233666550040     -0.58052366845231     -2.00472220625124
  H   -8.38693593382832     -0.82066814196508     -2.27888706484740
  H   -1.19597902216302     -1.90132946794350     -6.25206043196345
  H   1.28471369267857     -1.82444850608624     -6.23575753714278
  H   4.00113787081550     -1.23001495185547     -4.28156063880803
  H   4.25047659505257     -0.51201835100445     -1.87790233822141
  H   8.43279234680216     -0.51554744332092     -2.17140782505713
  H   9.61219237323932     -1.12091002632296     -4.30397629346977
  H   9.46701778609883     -1.84435085849920     -6.69512600064787
  H   7.25597462557571     -2.21365348066288     -7.77970001640015
  H   3.51107311278279     -3.06901276456764     -9.76053647066570
  H   1.38075553105370     -3.56511584749428    -10.94797832844625
  H   -1.12363368659271     -3.64018023657684    -10.96511511856035
  H   -3.29507309029089     -3.28112649130142     -9.80442149899044
  Pd  6.40095818741281      0.06511603576414      0.02322496608190
  Pd  -6.38149334095188     -0.04047074138961     -0.11740092271623
  O   2.64050068938600     -0.23763814668428     -0.05096772219626
  C   1.38930778598944     -0.20536282380881     -0.07275646847274
  C   0.58104196101452     -0.90160851721394      0.97086924678564
  C   1.32313633167031     -1.67572923580346      2.01619383205579
  C   -0.78628844317835     -0.81226399669589      0.92940898511742
  C   -1.50694320683030     -0.07474441608028     -0.11623782963702
  C   -0.69624712887549      0.59016487315582     -1.15368475600829
  C   0.66505516669701      0.52510370200614     -1.12865267500885
  O   -2.76035567932111     -0.01684680056287     -0.13306840106161
  H   1.92774265072714     -2.48000907121958      1.54400591149493
  H   0.63905374410647     -2.13616427518441      2.75343705183558
  H   2.04264116964893     -1.02677170215743      2.55795470479771
  H   -1.40730184415791     -1.30862516746687      1.69305154221466
  H   -1.23969024577233      1.13531790657547     -1.94136874214170
  H   1.28254038112104      1.01757486356696     -1.89691133504489
