222
Coordinates from ORCA-job cage_L-3_chloroquinone_orca_opt
  C   -2.42663466544114     -7.89734029003769      2.52517922587822
  C   -3.66491293628496     -7.24009100525791      2.28336780324533
  C   -4.75243866462595     -6.68984809616797      2.08534575166407
  C   -6.01141864574081     -6.07321601340568      1.86265022523045
  C   -7.21226171320653     -6.77945199150658      2.06765241181656
  C   -8.47540920019126     -6.17988234613140      1.84957698729526
  C   -8.57718290536035     -4.86150473840557      1.42381615541177
  C   -7.39049889455755     -4.10408678570529      1.20634582308554
  C   -6.09525579517968     -4.69970752691035      1.42149096609748
  C   -4.95507872911586     -3.88613221348622      1.18933052449244
  C   -5.09698923074251     -2.57512035162883      0.77111779302041
  N   -6.33732500301710     -2.01897167745511      0.56661038285662
  C   -7.43614601962964     -2.75107715627322      0.77482981820059
  C   -1.20832407684066     -7.24021686590514      2.28639827431171
  C   0.03564024808349     -7.88189853320558      2.53378671189322
  C   1.27391748894465     -7.22300322694431      2.30380983802977
  C   2.49779463912386     -7.86353555894479      2.55869969184665
  C   3.73010959248420     -7.18990177586221      2.33209258420829
  C   4.81301087763531     -6.62861684236120      2.13974165105933
  C   6.06635726191392     -6.00281022812063      1.91089651116584
  C   6.13832008559433     -4.62385291003049      1.48506653226105
  C   4.99149516003784     -3.81315387833975      1.27690710129644
  C   5.12225977868390     -2.49638041249883      0.87363735254683
  N   6.35710119365284     -1.93108317282402      0.66160878903550
  C   7.46181866704561     -2.66084826997811      0.84594901866679
  C   7.42787802006534     -4.01976179842504      1.25978292158660
  C   8.62071680067136     -4.77378029336676      1.45455794942244
  C   8.53046683201909     -6.09718749782264      1.86721029974696
  C   7.27293304009388     -6.70533603546183      2.09388236713323
  C   2.49055079232070     -9.21216166984282      3.05547912362522
  C   1.29469795631325     -9.87090326441805      3.28398910930718
  C   0.04154539369189     -9.23643747670444      3.03629302401508
  C   -1.20601981594087     -9.88795254926259      3.26728479701950
  C   -2.40758824218432     -9.24541001595468      3.02310906132139
  H   -7.15991052893436     -7.82408878280651      2.40581148279789
  H   -9.38525032428850     -6.77334543470862      2.02314922581911
  H   -9.56082000069440     -4.39834311069592      1.25466912930130
  H   -3.95098757300592     -4.30551009856899      1.34792247287063
  H   -4.23353444648898     -1.91744790956483      0.58340385274175
  H   -8.40931185755322     -2.26524782871873      0.59919261004697
  H   -1.21232332073137     -6.20937465898567      1.90224176272148
  H   1.26900367500864     -6.19250843453257      1.91873204261124
  H   3.99140032761997     -4.23931527549271      1.44225213358681
  H   4.25316191463079     -1.84094727228165      0.70634144786544
  H   8.43044318243052     -2.16807719398181      0.66472987051093
  H   9.60001609775553     -4.30430028125917      1.27779195611338
  H   9.44521938426295     -6.68805618104147      2.02297397036407
  H   7.22956992539209     -7.75360742041103      2.42194677606774
  H   3.44841346973972     -9.71284426386808      3.25468917436561
  H   1.30177036926325    -10.90296606760502      3.66537592272384
  H   -1.20413321314715    -10.91961481255209      3.64980830381626
  H   -3.36110317174559     -9.75952893990874      3.20851418001617
  C   -2.54446613235614      2.50881661435305      7.84673629869125
  C   -3.77121490846167      2.26990653819119      7.16718565800182
  C   -4.84970317880759      2.07399445457367      6.59861536672277
  C   -6.09935856130550      1.85350836852098      5.96248216027997
  C   -7.31053609339502      2.05954254628433      6.65065225220838
  C   -8.56475432561135      1.84229645226017      6.03228256849784
  C   -8.64715752329259      1.41500055834663      4.71302179333689
  C   -7.44945035130250      1.19646208913218      3.97334504656768
  C   -6.16315049060521      1.41182255993883      4.58805686946026
  C   -5.01100682509248      1.17872226910756      3.79184968142587
  C   -5.13438492859020      0.75855564659266      2.47972173740932
  N   -6.36587824120737      0.55517837102540      1.90414587535021
  C   -7.47536632231937      0.76461194686939      2.61985005353057
  C   -1.31458997525020      2.26973680880719      7.21123527747095
  C   -0.08223214239788      2.51038324253954      7.87755683215572
  C   1.16764603429541      2.27736454629959      7.24182867899665
  C   2.37996675921621      2.52279544272723      7.90786453665360
  C   3.62442555248127      2.29128761529350      7.25851150253242
  C   4.71712943147316      2.09411985476985      6.71828367828893
  C   5.98027308344390      1.85899787269619      6.11475631880626
  C   6.07376971801022      1.43740118709798      4.73578903884571
  C   4.93955050327191      1.23894467356214      3.90529285420136
  C   5.09129750209899      0.83752701308684      2.59049544501723
  N   6.33385916397133      0.61964107031316      2.04507891745705
  C   7.42713993910734      0.79500780010395      2.79402410773588
  C   7.37210617927256      1.20535316334355      4.15341758830058
  C   8.55275268166413      1.38924894487974      4.92904448299236
  C   8.44194050307947      1.79838464113279      6.25196012597500
  C   7.17547726026852      2.03150565946894      6.83889838671112
  C   2.34844951428440      3.01566218960905      9.25744987405671
  C   1.14095244135576      3.24785607351215      9.89342814509670
  C   -0.10060964016098      3.00762252436395      9.23391450356491
  C   -1.35950914914077      3.24139540283291      9.86219559036004
  C   -2.54948771398823      3.00243941848268      9.19648215764106
  H   -7.27345396202761      2.39758519239898      7.69595895236627
  H   -9.48322887545386      2.01595210509531      6.61225238388646
  H   -9.62399724241417      1.24708065868407      4.23522959203206
  H   -4.01274368612316      1.33799705275705      4.22439876179881
  H   -4.26108219998335      0.57034281288201      1.83644961530786
  H   -8.44138213474434      0.58939290570908      2.11986736899477
  H   -1.30040952877957      1.89048312537767      6.17869580304150
  H   1.18086162214551      1.89858065817088      6.20913310739484
  H   3.93306760660010      1.40974921818127      4.31361246840677
  H   4.23352077847370      0.67764486861957      1.91970286413273
  H   8.40289207455014      0.60981494723914      2.31706111281530
  H   9.53892289814977      1.20811654081567      4.47594332038297
  H   9.34720872094680      1.94605219455894      6.85931316327711
  H   7.11608139584260      2.35570262168585      7.88760639605919
  H   3.29717272834057      3.20795743121475      9.77784845299853
  H   1.12974294498134      3.62583983549619     10.92671668616808
  H   -1.37582966496420      3.61964792541748     10.89529925958989
  H   -3.51198712362159      3.18937582511852      9.69302784446204
  C   -2.49547184335038      7.80474682637045     -2.60103633665668
  C   -3.72956671332092      7.13417626131657     -2.37630348963494
  C   -4.81410037685929      6.57325464730500     -2.19256412698245
  C   -6.06831255831527      5.94219870112395     -1.98502681943781
  C   -7.27551207533614      6.63096315446259     -2.21075216980408
  C   -8.53322498104800      6.01523536531549     -2.00642676826802
  C   -8.62289845093236      4.69813688463070     -1.57391111109217
  C   -7.42914976032073      3.95803958589336     -1.33606683495693
  C   -6.13951388763241      4.57047228144470     -1.53641417007108
  C   -4.99127805551341      3.77469747779794     -1.28372750887222
  C   -5.12049408531869      2.46378937144538     -0.86136759341157
  N   -6.35560752311636      1.89123127026921     -0.67152284040183
  C   -7.46177507082566      2.60676294107043     -0.89801145496384
  C   -1.27289531574054      7.16231511439496     -2.34269074451878
  C   -0.03320400950767      7.82146610164699     -2.56450375204992
  C   1.20938304308223      7.18015818397461     -2.30799626872952
  C   2.42838496032611      7.84323534032235     -2.52929206294061
  C   3.66703434622891      7.19511040911429     -2.26758158765724
  C   4.75705861140854      6.65976025694225     -2.04439171989871
  C   6.01572277360601      6.06030950302180     -1.77852321390607
  C   6.10021115214244      4.68515631847752     -1.34284554163008
  C   4.96240194704289      3.85627592887580     -1.16106333586779
  C   5.10528532313606      2.54344003435851     -0.74982134256137
  N   6.34351949949455      2.00061537759161     -0.50417453394482
  C   7.44057077012997      2.74837992389358     -0.66103201054635
  C   7.39369626439741      4.10502078843079     -1.08066702079709
  C   8.57768382722668      4.87994623186010     -1.24647445536570
  C   8.47517006744555      6.19951362809477     -1.66821522216283
  C   7.21361337407983      6.78392358542466     -1.93262121986382
  C   2.41142168517407      9.19166485861194     -3.02575786714022
  C   1.21122923948925      9.83134916840214     -3.28350744514938
  C   -0.03687338410399      9.17704927682372     -3.06436814177024
  C   -1.28820706281961      9.81100447862510     -3.32122139814906
  C   -2.48554595035903      9.15249160098934     -3.09925781909106
  H   -7.23270260457511      7.67435410055638     -2.55399014493401
  H   -9.44862143355002      6.59533668907536     -2.19516590046717
  H   -9.60248835103254      4.22224368800245     -1.41691347183312
  H   -3.99100951355098      4.20737305729581     -1.43033973117706
  H   -4.24995663376494      1.81960014866642     -0.66015429038588
  H   -8.43035037478762      2.10839031291301     -0.73246962371995
  H   -1.26999573172915      6.13029306485618     -1.96177399261823
  H   1.21182647610735      6.14669234073065     -1.93031957815891
  H   3.95788046258011      4.25874989007999     -1.35397494424568
  H   4.23868250618593      1.87907380683099     -0.60853890054624
  H   8.41232844530451      2.27233429762839     -0.45393277424944
  H   9.56008928043418      4.42880056614560     -1.04160026284862
  H   9.38324171573553      6.80594133827710     -1.80188924164498
  H   7.16051822679634      7.82952373900544     -2.26767198174694
  H   3.36575884409547      9.70856133745621     -3.19885319725352
  H   1.21080668286846     10.86357744932005     -3.66448433112907
  H   -1.29286487130522     10.84319892313073     -3.70230559201649
  H   -3.44225452042363      9.65347277787240     -3.30316664530819
  C   -2.37955680763650     -2.46312828696425     -7.91324133525272
  C   -3.62380337976446     -2.26043430887473     -7.25427755360009
  C   -4.71573692279405     -2.09588867267310     -6.70164738062094
  C   -5.97873346442715     -1.91119958476083     -6.08088501152911
  C   -7.17575226922270     -2.13418585273933     -6.78810527276887
  C   -8.44245068813882     -1.95457287310631     -6.18330922642412
  C   -8.55164482896949     -1.54964206198451     -4.85895568492492
  C   -7.36893772433414     -1.31426755339518     -4.10060330418348
  C   -6.07032483005963     -1.49179714235899     -4.70106072400181
  C   -4.93403931988836     -1.24482494817269     -3.88662624403976
  C   -5.08350865174692     -0.84567868650376     -2.57074842649464
  N   -6.32659988904714     -0.67674865711698     -2.00920573962409
  C   -7.42188670951223     -0.90159426223767     -2.74190224770568
  C   -1.16784764818370     -2.21047842914875     -7.24845488603470
  C   0.08236447705451     -2.42002806127436     -7.89136116635339
  C   1.31391872178577     -2.17671950412766     -7.22451236769894
  C   2.54441856660740     -2.39524136126715     -7.86620636248301
  C   3.77032642028749     -2.15995280303082     -7.18398840144845
  C   4.84821499586420     -1.96026456508141     -6.61570727924328
  C   6.09683898658225     -1.72407678543440     -5.98320999070976
  C   6.16061196002815     -1.31729896228107     -4.59808800792456
  C   5.00942148464480     -1.12847448359813     -3.78883279055417
  C   5.13363141223938     -0.74634174807599     -2.46526631034841
  N   6.36482659793886     -0.53881232762928     -1.89059046983354
  C   7.47325576333766     -0.70385202535999     -2.61957382006626
  C   7.44652015036983     -1.09396285275878     -3.98556370847041
  C   8.64346862515113     -1.26806561390952     -4.73831396502503
  C   8.56091633856910     -1.65920105313057     -6.06865860440359
  C   7.30714679439743     -1.88637369456916     -6.68438622684127
  C   2.55072744583240     -2.86651664560449     -9.22382580735905
  C   1.36137533230509     -3.10689779665060     -9.89039737431492
  C   0.10195770429121     -2.89697117265982     -9.25492151766535
  C   -1.13895848956263     -3.14220226832355     -9.91387321133476
  C   -2.34697756302325     -2.93561349908576     -9.26998660632401
  H   -7.11755291908419     -2.45654009039534     -7.83746058414660
  H   -9.34912435502276     -2.14172492168963     -6.77747014448035
  H   -9.53813522200718     -1.41000524935104     -4.39195477514507
  H   -3.92707956855776     -1.37636858163392     -4.30827285840087
  H   -4.22274393946161     -0.64792241956634     -1.91363760683138
  H   -8.39788838047653     -0.75446004182126     -2.25223498195624
  H   -1.18184027385270     -1.84557329557543     -6.21077949689232
  H   1.29871890273162     -1.81125420806598     -6.18702156553365
  H   4.01099297666477     -1.29177316668834     -4.21937891307115
  H   4.26004118481555     -0.59810640519135     -1.81227899903785
  H   8.43901744203092     -0.52467158747524     -2.12053771631974
  H   9.61983652123829     -1.09254774449350     -4.26226462058325
  H   9.47883983943531     -1.79854917499312     -6.65872866529420
  H   7.26970599833566     -2.19959305688615     -7.73744047922717
  H   3.51375739089031     -3.03698538162664     -9.72529278028703
  H   1.37876672383888     -3.46962538320508    -10.92906045756517
  H   -1.12678234131276     -3.50590856653252    -10.95229578201615
  H   -3.29513488375339     -3.13230686169146     -9.78976231854186
  Pd  6.40438276516493      0.03596934569978      0.07891419087985
  Pd  -6.40029040668152     -0.06392409982629     -0.05207488301818
  O   2.68625095755240     -0.00894179150544      0.08901433324286
  C   1.43814011531975     -0.00719911144405      0.06277096753963
  C   0.65836867143426      0.87033768804931     -0.85538021130656
  Cl  1.56931607407832      1.89989308634738     -1.90936710165623
  C   -0.71138233575278      0.86226382257946     -0.88257271086674
  C   -1.48568278220400     -0.01775086939942      0.00055569482464
  C   -0.72662117671257     -0.88625022866967      0.91647516794487
  C   0.63811321169469     -0.87614601645645      0.94000446896478
  O   -2.74199024932997     -0.03019562875680     -0.02540504700791
  H   -1.27054356463585      1.51248129231406     -1.57091998765734
  H   -1.31209790030346     -1.54331545231683      1.57821024572654
  H   1.20972515349762     -1.52505174498565      1.62188099720406
