294
cage_7-isoquinoline_1-4-napythyl_2-6-pyridine.xyz
Pd	8.139067	-0.434556	-0.577082
Pd	-8.531962	0.451333	0.593080
H	-6.393285	0.971416	2.626302
H	-10.334415	2.301402	2.096151
H	-10.245500	3.694435	4.173414
H	-6.714054	4.507256	7.434427
H	-8.863910	4.522977	6.191832
H	-4.983097	1.767545	4.551872
H	-1.120511	4.016450	6.140812
H	-3.318715	3.715826	4.995207
H	-6.352318	2.271020	8.486135
H	-6.129992	1.815958	10.905500
H	-3.907251	2.111619	12.047023
H	-1.947463	2.903448	10.768182
H	2.936481	4.903403	10.041796
H	0.893357	5.772260	11.222900
H	-1.381999	5.144223	10.351858
H	3.931751	3.295482	4.484705
H	1.960604	3.830982	5.922611
H	3.292001	2.601417	10.397602
H	5.308121	1.580202	11.399937
H	7.301456	1.040287	9.962748
H	7.236961	1.488165	7.532361
H	6.353802	0.294606	1.713250
H	10.314048	1.195014	0.670640
H	10.650070	2.558971	2.741281
H	7.689530	3.694742	6.443510
H	9.644736	3.502004	4.924785
H	5.306797	1.200871	3.814183
C	-7.218826	1.599617	2.996944
N	-8.360137	1.585766	2.295824
C	-9.428696	2.339957	2.718241
C	-9.364951	3.111349	3.865783
C	-6.821562	3.897205	6.525412
C	-8.021569	3.913107	5.831666
C	-8.172107	3.151174	4.638722
C	-7.049184	2.370784	4.176864
C	-5.827225	2.378686	4.906250
C	-5.691325	3.131375	6.076494
C	-2.002965	3.713393	6.722059
C	-3.242749	3.525460	6.077297
C	-4.395240	3.196177	6.797187
C	-4.290857	2.953365	8.215068
C	-5.391333	2.466662	8.983740
C	-5.265702	2.191581	10.337645
C	-4.015760	2.363415	10.981659
C	-2.919524	2.818714	10.263426
C	-3.013889	3.144424	8.875598
C	-1.876366	3.586941	8.106081
C	1.931589	4.621235	9.698088
C	0.793143	5.108603	10.350655
C	-0.473479	4.756505	9.869872
C	-0.559251	3.936440	8.719823
N	0.539949	3.500987	8.070947
C	1.761772	3.804357	8.555364
C	3.985972	3.105950	5.568298
C	2.876900	3.428375	6.377301
C	2.931243	3.310129	7.766857
C	4.107057	2.734951	8.374893
C	4.169607	2.411243	9.765077
C	5.295649	1.827756	10.328053
C	6.415900	1.518678	9.517713
C	6.382913	1.788426	8.157075
C	5.249957	2.405430	7.544958
C	5.183970	2.646710	6.124333
C	7.285048	0.822759	1.973252
N	8.315346	0.697429	1.127014
C	9.506277	1.323151	1.405669
C	9.678630	2.078813	2.552525
C	7.610570	3.089484	5.528116
C	8.702110	2.989559	4.680213
C	8.610038	2.233935	3.477394
C	7.357637	1.586460	3.167793
C	6.252023	1.711058	4.054411
C	6.355457	2.454574	5.233622
H	-6.497983	2.514901	-0.169677
H	-10.562970	1.936959	-1.016088
H	-10.670668	4.021133	-2.397822
H	-7.309347	7.338967	-3.604670
H	-9.426711	6.062975	-3.374463
H	-5.222646	4.469917	-1.108899
H	-1.680133	6.132927	-3.795203
H	-3.803922	4.948000	-3.229017
H	-6.704422	8.388231	-1.429921
H	-6.470851	10.811089	-1.001693
H	-4.319484	11.990391	-1.559375
H	-2.446400	10.744292	-2.580980
H	2.155228	10.109866	-5.193152
H	-0.003273	11.252776	-5.791162
H	-2.163477	10.339445	-4.878788
H	3.436916	4.563360	-3.747929
H	1.393725	5.971546	-4.025082
H	2.803463	10.465774	-2.971854
H	4.917716	11.499492	-2.209617
H	6.983393	10.091301	-1.924187
H	6.899788	7.659680	-2.369388
H	6.254885	1.837860	-1.064426
H	10.065874	0.820751	-2.486071
H	10.205095	2.896053	-3.878241
H	7.087912	6.569951	-4.617693
H	9.068792	5.075660	-4.674891
H	5.076067	3.920392	-1.832915
C	-7.397968	2.877890	-0.691018
N	-8.519325	2.160159	-0.544956
C	-9.676910	2.571666	-1.160823
C	-9.722649	3.724258	-1.925827
C	-7.330158	6.424737	-2.993174
C	-8.513348	5.713288	-2.870082
C	-8.554224	4.514680	-2.103368
C	-7.339225	4.065539	-1.466770
C	-6.137871	4.813368	-1.614778
C	-6.110416	5.989458	-2.370325
C	-2.529699	6.698724	-3.386913
C	-3.725391	6.031726	-3.049560
C	-4.843006	6.731648	-2.584766
C	-4.735785	8.151925	-2.356257
C	-5.782297	8.901645	-1.738600
C	-5.648024	10.257921	-1.479081
C	-4.438964	10.923211	-1.798294
C	-3.393836	10.223964	-2.384590
C	-3.503249	8.834830	-2.699912
C	-2.414303	8.085188	-3.278131
C	1.200844	9.745715	-4.787536
C	-0.002078	10.378622	-5.122469
C	-1.204150	9.874185	-4.612814
C	-1.163698	8.722883	-3.791092
N	-0.006316	8.092593	-3.503157
C	1.157208	8.598587	-3.960203
C	3.499834	5.647567	-3.564881
C	2.346267	6.439770	-3.739266
C	2.394209	7.829721	-3.624772
C	3.624682	8.455988	-3.204679
C	3.707441	9.847453	-2.890748
C	4.889385	10.426915	-2.452544
C	6.051676	9.633491	-2.288959
C	6.005448	8.272643	-2.555209
C	4.812374	7.643153	-3.024021
C	4.737180	6.221697	-3.258435
C	7.105933	2.103598	-1.711717
N	8.150916	1.265582	-1.722706
C	9.245005	1.552232	-2.502909
C	9.307673	2.700817	-3.272669
C	7.096619	5.655503	-4.006110
C	8.201930	4.819681	-4.046758
C	8.220648	3.617236	-3.285431
C	7.066512	3.296453	-2.480052
C	5.943679	4.170397	-2.462375
C	5.936854	5.348052	-3.215449
H	-6.759546	-0.246511	-1.719552
H	-10.686165	-1.221066	-0.622006
H	-11.019718	-2.607853	-2.678463
H	-8.075778	-3.721691	-6.401348
H	-10.020072	-3.547782	-4.867071
H	-5.713112	-1.161256	-3.818569
H	-2.346445	-3.790908	-5.907168
H	-4.315999	-3.257028	-4.465609
H	-7.654739	-1.522218	-7.516606
H	-7.736406	-1.101956	-9.952022
H	-5.741178	-1.627725	-11.391534
H	-3.709299	-2.617024	-10.388935
H	0.989268	-5.118447	-10.337639
H	-1.285087	-5.754280	-11.207455
H	-3.329892	-4.895094	-10.023245
H	2.931988	-3.716027	-4.986588
H	0.731843	-4.016885	-6.127995
H	1.536706	-2.854055	-10.745900
H	3.484545	-2.028611	-12.021963
H	5.707432	-1.722660	-10.883510
H	5.941438	-2.200071	-8.470166
H	5.989804	-0.980411	-2.589861
H	9.959779	-2.246668	-2.115085
H	9.872560	-3.617939	-4.206913
H	6.327710	-4.443763	-7.448824
H	8.486167	-4.447257	-6.219476
H	4.578913	-1.766799	-4.518812
C	-7.682190	-0.796593	-1.964412
N	-8.705580	-0.684022	-1.108124
C	-9.886144	-1.337503	-1.367300
C	-10.056060	-2.106475	-2.505455
C	-7.998451	-3.107321	-5.491809
C	-9.084367	-3.016835	-4.635529
C	-8.994328	-2.249101	-3.440304
C	-7.751635	-1.574819	-3.149725
C	-6.651313	-1.690870	-4.044013
C	-6.751289	-2.450445	-5.213161
C	-3.267787	-3.399803	-6.361636
C	-4.376817	-3.081021	-5.551156
C	-5.581600	-2.639642	-6.106947
C	-5.655971	-2.413347	-7.529342
C	-6.800241	-1.818712	-8.142551
C	-6.842168	-1.562490	-9.505565
C	-5.721363	-1.865310	-10.317496
C	-4.585545	-2.429036	-9.753864
C	-4.512983	-2.738413	-8.360887
C	-3.328749	-3.295426	-7.752112
C	0.079519	-4.733395	-9.855811
C	-1.186272	-5.091101	-10.334683
C	-2.325911	-4.607373	-9.681524
C	-2.158400	-3.788046	-8.540148
N	-0.937170	-3.481285	-8.056136
C	0.162917	-3.914074	-8.705140
C	2.850901	-3.511165	-6.065644
C	1.610728	-3.702606	-6.708727
C	1.479228	-3.562469	-8.090861
C	2.611111	-3.103008	-8.858867
C	2.509330	-2.764454	-10.243013
C	3.599019	-2.291837	-10.960010
C	4.848581	-2.112915	-10.317237
C	4.980913	-2.400682	-8.966588
C	3.888277	-2.907842	-8.200062
C	3.998705	-3.165102	-6.784927
C	6.822800	-1.589229	-2.975819
N	7.970363	-1.565161	-2.285349
C	9.047845	-2.294572	-2.727400
C	8.985518	-3.053628	-3.883392
C	6.433464	-3.844459	-6.532506
C	7.638253	-3.852575	-5.847292
C	7.786585	-3.103437	-4.645964
C	6.655510	-2.346469	-4.165129
C	5.429278	-2.360772	-4.887228
C	5.296519	-3.098190	-6.067590
H	-6.648577	-1.826348	1.077541
H	-10.463933	-0.814170	2.491245
H	-10.597941	-2.882412	3.894497
H	-7.477186	-6.551535	4.642983
H	-9.456577	-5.054243	4.701946
H	-5.468876	-3.909189	1.849889
H	-1.777679	-5.942731	4.030037
H	-3.824143	-4.539118	3.748762
H	-7.292532	-7.652615	2.427949
H	-7.378015	-10.089568	2.013127
H	-5.309686	-11.492795	2.300280
H	-3.191620	-10.450311	3.037733
H	1.781997	-10.298084	4.935471
H	-0.377031	-11.207880	5.853285
H	-2.537145	-10.072795	5.246303
H	3.411773	-4.916691	3.241088
H	1.288205	-6.101746	3.811030
H	2.068688	-10.720896	2.636411
H	3.950103	-11.971903	1.636512
H	6.099674	-10.792089	1.074881
H	6.327920	-8.365759	1.486985
H	6.117426	-2.505086	0.176035
H	10.170351	-1.897207	1.059586
H	10.274771	-3.969689	2.459271
H	6.915753	-7.291611	3.664420
H	9.032075	-6.010050	3.439201
H	4.841399	-4.455160	1.122950
C	-7.499172	-2.092441	1.725313
N	-8.545682	-1.256463	1.733699
C	-9.640332	-1.542335	2.513785
C	-9.700404	-2.687483	3.288932
C	-7.485514	-5.636431	4.032355
C	-8.591515	-4.801850	4.069802
C	-8.611338	-3.600998	3.305758
C	-7.458235	-3.282980	2.498020
C	-6.334803	-4.155830	2.483162
C	-6.325471	-5.330689	3.241266
C	-2.731807	-6.414736	3.756007
C	-3.886465	-5.625468	3.577755
C	-5.126147	-6.203439	3.286618
C	-5.201184	-7.627628	3.070157
C	-6.396838	-8.262786	2.616331
C	-6.444149	-9.626699	2.365813
C	-5.280502	-10.417633	2.531533
C	-4.095953	-9.832552	2.955630
C	-4.012015	-8.437636	3.252753
C	-2.779441	-7.806289	3.658466
C	0.822082	-9.837005	4.664536
C	-0.379502	-10.339322	5.177300
C	-1.583356	-9.711199	4.837000
C	-1.541733	-8.571045	4.000219
N	-0.378527	-8.066870	3.539752
C	0.779781	-8.692199	3.833710
C	3.336123	-6.002372	3.072001
C	2.140918	-6.668866	3.411291
C	2.029719	-8.056801	3.315931
C	3.121909	-8.808640	2.746670
C	3.016434	-10.200370	2.441921
C	4.065191	-10.901851	1.864627
C	5.274912	-10.237089	1.546783
C	5.405087	-8.878314	1.795187
C	4.354113	-8.125775	2.401930
C	4.457490	-6.703452	2.618427
C	7.014042	-2.858326	0.709735
N	8.132762	-2.135397	0.568956
C	9.286143	-2.535295	1.200790
C	9.329994	-3.681192	1.975670
C	6.940042	-6.384387	3.042601
C	8.120896	-5.668213	2.925496
C	8.163920	-4.476412	2.148238
C	6.953142	-4.038815	1.495798
C	5.753738	-4.790522	1.639462
C	5.724126	-5.960012	2.404650
