186
cage_3-pyridine_NH_1-8-anthracene.xyz
Pd	4.315387	-0.121852	0.021257
Pd	-4.301965	0.137430	0.006643
H	-2.764906	-0.215422	2.561768
H	-5.877269	2.302939	1.319270
H	-5.927594	3.450215	3.568081
H	-4.338315	2.739030	5.363005
H	-1.836273	0.016446	4.705427
H	0.028387	1.220719	10.344683
H	-4.640866	0.836023	6.696507
H	-4.597876	1.176030	9.162095
H	-2.417083	1.294865	10.379163
H	0.029879	0.896503	5.339443
H	2.473160	1.134710	10.391527
H	4.647470	0.872186	9.185570
H	4.680651	0.531277	6.720035
H	1.834944	-0.093066	4.712529
H	2.748471	-0.375626	2.568757
H	6.031710	1.926341	1.345838
H	6.157165	3.054593	3.601447
H	4.517390	2.447625	5.388710
C	-3.441529	0.611666	2.826311
N	-4.297709	1.026924	1.866578
C	-5.188801	2.015981	2.125098
C	-5.208676	2.638575	3.383022
C	-4.328372	2.238201	4.385349
C	-3.411407	1.176415	4.132570
N	-2.513884	0.699865	5.052496
C	0.027610	1.114963	9.248243
C	-2.493303	0.900115	6.459790
C	-3.670019	0.955443	7.199525
C	-3.647289	1.122068	8.611887
C	-2.443270	1.182264	9.284732
C	-1.206051	1.085077	8.570967
C	-1.208943	0.962166	7.122144
C	0.027597	0.896757	6.441593
C	1.262362	0.882558	7.128286
C	1.260111	1.004783	8.577150
C	2.497393	1.020934	9.297202
C	3.698240	0.881567	8.630397
C	3.717419	0.715120	7.217912
C	2.543463	0.738168	6.472127
N	2.557496	0.539635	5.064642
C	3.486509	0.959643	4.148563
C	3.480378	0.401040	2.839235
N	4.365949	0.760323	1.883591
C	5.323397	1.683208	2.149010
C	5.383239	2.296667	3.410122
C	4.475030	1.953371	4.408682
H	-2.681728	2.649813	0.307842
H	-5.897723	1.493295	-2.120303
H	-5.911099	3.737812	-3.275385
H	-4.249838	5.486762	-2.614964
H	-1.697053	4.764276	0.043352
H	0.320657	10.328880	-1.256352
H	-4.455679	6.841126	-0.716823
H	-4.340880	9.301476	-1.080303
H	-2.124653	10.444253	-1.268761
H	0.162320	5.329027	-0.889166
H	2.766586	10.294562	-1.232145
H	4.905161	9.018979	-1.015670
H	4.865682	6.555144	-0.659614
H	1.982359	4.644748	0.058768
H	2.845281	2.476712	0.324532
H	6.004017	1.145099	-2.089313
H	6.153705	3.389874	-3.235215
H	4.591086	5.228164	-2.579355
C	-3.372497	2.931559	-0.501735
N	-4.268558	1.996815	-0.888761
C	-5.177325	2.278517	-1.855384
C	-5.176078	3.534116	-2.482823
C	-4.255593	4.510913	-2.110651
C	-3.318344	4.234323	-1.072844
N	-2.381438	5.128619	-0.624109
C	0.285282	9.233944	-1.141553
C	-2.320034	6.533035	-0.836673
C	-3.472717	7.311053	-0.866918
C	-3.407848	8.720512	-1.046891
C	-2.184222	9.352333	-1.145413
C	-0.969053	8.598616	-1.074129
C	-1.016577	7.151724	-0.938500
C	0.197903	6.430538	-0.899607
C	1.454740	7.075426	-0.923434
C	1.497235	8.522716	-1.057231
C	2.756927	9.200844	-1.110346
C	3.938271	8.495357	-0.996743
C	3.914898	7.084203	-0.820492
C	2.716657	6.377975	-0.807852
N	2.691584	4.971470	-0.602063
C	3.578622	4.026270	-1.047980
C	3.554901	2.720785	-0.481008
N	4.398285	1.737516	-0.866404
C	5.328261	1.969484	-1.825805
C	5.402868	3.225349	-2.448343
C	4.537348	4.251998	-2.078552
H	-2.729225	0.363610	-2.541997
H	-6.039081	-1.896132	-1.312365
H	-6.170978	-3.037543	-3.561475
H	-4.522931	-2.456612	-5.349509
H	-1.817358	0.062776	-4.682778
H	-0.015819	-1.243366	-10.313303
H	-4.668771	-0.573280	-6.687011
H	-4.634849	-0.911764	-9.151903
H	-2.460255	-1.170331	-10.358561
H	-0.014669	-0.921520	-5.308311
H	2.429348	-1.304485	-10.350716
H	4.610985	-1.175636	-9.135945
H	4.655297	-0.835976	-6.670961
H	1.842164	-0.037937	-4.675821
H	2.770762	0.210393	-2.534835
H	5.918477	-2.262919	-1.292085
H	5.982245	-3.413245	-3.539767
H	4.381192	-2.727022	-5.333435
C	-3.468278	-0.407470	-2.809344
N	-4.359209	-0.752159	-1.853512
C	-5.326679	-1.665384	-2.115670
C	-5.390410	-2.285669	-3.373281
C	-4.476091	-1.958375	-4.371715
C	-3.478440	-0.972669	-4.115906
N	-2.543676	-0.566858	-5.032604
C	-0.014496	-1.136768	-9.216937
C	-2.530221	-0.768661	-6.439348
C	-3.704409	-0.750689	-7.184942
C	-3.685392	-0.919603	-8.597070
C	-2.484377	-1.053609	-9.264529
C	-1.246946	-1.032593	-8.544902
C	-1.248755	-0.909736	-7.096064
C	-0.013134	-0.919098	-6.410542
C	1.223312	-0.978343	-7.092114
C	1.219629	-1.100799	-8.540930
C	2.456345	-1.192203	-9.256295
C	3.660725	-1.126206	-8.584769
C	3.684311	-0.960237	-7.172386
C	2.508305	-0.910636	-6.431062
N	2.528752	-0.711783	-5.023877
C	3.434040	-1.175056	-4.104748
C	3.457555	-0.608494	-2.799089
N	4.320238	-1.010789	-1.840028
C	5.225799	-1.986571	-2.098087
C	5.252677	-2.611061	-3.354973
C	4.365096	-2.224878	-4.356590
H	-2.827737	-2.454313	-0.305869
H	-5.986080	-1.140932	2.118055
H	-6.147126	-3.399702	3.234929
H	-4.586631	-5.233772	2.563207
H	-1.965621	-4.622634	-0.057301
H	-0.308927	-10.325445	1.149226
H	-4.855385	-6.541495	0.634839
H	-4.893971	-9.010282	0.951350
H	-2.755133	-10.290441	1.133624
H	-0.150739	-5.319891	0.873927
H	2.136919	-10.440988	1.152848
H	4.352416	-9.294343	0.981316
H	4.466310	-6.828301	0.660595
H	1.701479	-4.739840	-0.054131
H	2.687967	-2.623631	-0.296352
H	5.909836	-1.499199	2.138623
H	5.931837	-3.761760	3.257958
H	4.268135	-5.501390	2.579927
C	-3.539332	-2.705198	0.495815
N	-4.381260	-1.724172	0.890129
C	-5.313119	-1.964726	1.845451
C	-5.393454	-3.227903	2.452346
C	-4.529770	-4.252545	2.072820
C	-3.567084	-4.016782	1.048191
N	-2.678726	-4.957438	0.595219
C	-0.273650	-9.228521	1.054538
C	-2.705706	-6.366695	0.778773
C	-3.904114	-7.072770	0.784683
C	-3.926921	-8.486804	0.936074
C	-2.745453	-9.194536	1.032687
C	-1.485794	-8.515877	0.986531
C	-1.443634	-7.066516	0.878137
C	-0.186752	-6.421418	0.862699
C	1.027733	-7.143214	0.885325
C	0.980591	-8.592198	0.995071
C	2.195992	-9.346915	1.049695
C	3.419228	-8.713064	0.960068
C	3.483721	-7.300554	0.805621
C	2.330845	-6.522382	0.791722
N	2.390421	-5.114640	0.602742
C	3.329259	-4.226815	1.060267
C	3.381590	-2.916427	0.506848
N	4.278333	-1.986617	0.904257
C	5.190516	-2.281937	1.863333
C	5.193259	-3.546949	2.471638
C	4.271874	-4.518723	2.088935
