186
Coordinates from ORCA-job cage_L-5_anthracene-9,10-dione_orca_opt
  C   6.29262617247389      0.00629957139077     -3.65332435381142
  C   5.10282272734734     -0.02841162911375     -4.42149560635661
  C   4.08665781479304     -0.05581384177601     -5.12110871336279
  C   2.92217716742092     -0.07993961555321     -5.93644250018472
  C   3.03866482934564     -0.06609533582303     -7.36990200856014
  C   1.90722380573923     -0.08072577638450     -8.16483488445597
  C   0.60135493217658     -0.10610124971443     -7.59090820957679
  C   -0.58347852243922     -0.11243977280549     -8.38564247912777
  C   -1.83726453846895     -0.12795495377967     -7.80192421788769
  C   -1.97302760431227     -0.14040547281527     -6.37039044414950
  C   -3.26059144699706     -0.14237060827635     -5.76760524804647
  C   -4.37778180281384     -0.13385270065815     -5.24377159988831
  C   -5.67021799810508     -0.11415584797889     -4.66426205392485
  C   -6.85472028137259     -0.10176748305784     -5.45163824722084
  C   -8.10078915658758     -0.07825473762091     -4.82224324727201
  C   -8.16759971288210     -0.06807221960717     -3.42328687840178
  N   -7.04228824701172     -0.08154547386625     -2.66680359177077
  C   -5.82820880882400     -0.10425698912910     -3.25390368823098
  C   -0.82149369625700     -0.14301649235097     -5.56916415707312
  C   0.47460033999362     -0.12324658006724     -6.15120937124494
  C   1.64821397681622     -0.11288586199032     -5.35021774764618
  C   7.57996898941125      0.03395225001267     -4.25750714235767
  C   8.71944121476060      0.07019470818261     -3.45184979947326
  C   8.57980229004340      0.07866680862852     -2.05845112265262
  N   7.35563428967918      0.05198354353244     -1.47599750262359
  C   6.24098390227629      0.01623366542053     -2.23499922076375
  H   4.03844226833396     -0.04330871054853     -7.82644256514762
  H   2.00869607279462     -0.07063462303439     -9.26131636360955
  H   -0.48891077384819     -0.10338315303975     -9.48265743835831
  H   -2.74196764533281     -0.12895887605945     -8.42629359353571
  H   -6.77758109503108     -0.11097025057760     -6.54905506075068
  H   -9.03129471420317     -0.06803469973567     -5.40803573957532
  H   -9.13092250072680     -0.04950071520175     -2.89214503461579
  H   -4.94732168711310     -0.11645641696197     -2.59304671178729
  H   -0.92115538167594     -0.15655271639565     -4.47258236998877
  H   1.55229475630865     -0.12787709205584     -4.25378921067782
  H   7.66628104370072      0.02562093340310     -5.35422031288477
  H   9.72577709176304      0.09194504068594     -3.89473459271753
  H   9.45480356184419      0.10642743674742     -1.39212949033023
  H   5.27320851967002     -0.00597735003852     -1.70964976026423
  C   6.02968916851442     -4.10749804653701      0.43121671876462
  C   4.79730380712895     -4.79541474291574      0.30951011270268
  C   3.73870956181012     -5.42001473823123      0.19906884475721
  C   2.52133914524890     -6.14200017586633      0.06481293686464
  C   2.52797154186425     -7.57938470758563      0.01717515418170
  C   1.34313082340048     -8.28102282931038     -0.11174014595895
  C   0.08957824414390     -7.60522887870698     -0.19618889888038
  C   -1.14857833416925     -8.30265175829926     -0.32231469726685
  C   -2.35004290531909     -7.62154244300738     -0.39490437309400
  C   -2.37601237033644     -6.18441553181785     -0.34700598709463
  C   -3.61150454736072     -5.48401097828493     -0.41407014585325
  C   -4.68519746326045     -4.87895762117464     -0.47745940862800
  C   -5.93359333143152     -4.21414663089252     -0.55792388790594
  C   -7.16363423960353     -4.92333063530269     -0.64233997361566
  C   -8.36456950607567     -4.21502203708586     -0.71402022249102
  C   -8.34201597652513     -2.81473675741870     -0.70119387588210
  N   -7.17275423530646     -2.13253202579490     -0.62247177413484
  C   -6.00045201552275     -2.79638851154144     -0.55360315195168
  C   -1.17005233616629     -5.47763019146700     -0.22879440461743
  C   0.07335118000772     -6.16064433076024     -0.15000754382652
  C   1.30067503430874     -5.45630897744347     -0.02168971905592
  C   7.27186605098746     -4.79270135280033      0.53365229111286
  C   8.45542848571778     -4.06114313035378      0.64861044579832
  C   8.40400663183515     -2.66160935445869      0.66038857334434
  N   7.22307763881587     -2.00210457925555      0.56375909185761
  C   6.06747967169403     -2.68882873501118      0.45282591135378
  H   3.48647174287977     -8.11339967034370      0.08398233220564
  H   1.35960096025877     -9.38138997397049     -0.15002725541115
  H   -1.13906360433234     -9.40305346321099     -0.36099938766394
  H   -3.29692979073308     -8.17166114583604     -0.48986768793802
  H   -7.15733382655423     -6.02341056938327     -0.65013010857279
  H   -9.32864518343448     -4.73983353871841     -0.78067050200635
  H   -9.26831802214788     -2.22341168663135     -0.75526639366685
  H   -5.08044847436673     -2.19398097613858     -0.49212976799852
  H   -1.18498375810144     -4.37739646176713     -0.19109522727318
  H   1.28987461223061     -4.35601778251185      0.01293803972261
  H   7.28885402661525     -5.89262262609195      0.52032827916851
  H   9.42840940261533     -4.56723938234807      0.72954492314461
  H   9.31615213687113     -2.05271242194658      0.74834824197761
  H   5.13743141916965     -2.10418764947654      0.37478780249774
  C   5.67252673349966      0.08733293100315      4.61570762820045
  C   4.37943568571463      0.11137189262298      5.19388303740766
  C   3.26225060742601      0.12791217118216      5.71770055899088
  C   1.97557027410583      0.13695427493762      6.32258301129316
  C   1.84226092874137      0.13022489903643      7.75443952908653
  C   0.58938579775543      0.12358487518657      8.34040416848819
  C   -0.59689377952614      0.11988625124781      7.54770540162299
  C   -1.90194958153040      0.10053721179076      8.12378300667398
  C   -3.03480417046638      0.08586143714653      7.33075231944072
  C   -2.92048112965046      0.09455250475630      5.89712489003080
  C   -4.08517040232762      0.06710521207776      5.08222879362579
  C   -5.10001056364496      0.03385393988609      4.38102496531978
  C   -6.28737046708172     -0.01307974741724      3.60974316604734
  C   -7.57594427078443     -0.04673834646940      4.21093317023033
  C   -8.71312607151600     -0.09531019832751      3.40271860051633
  C   -8.56986805343501     -0.10919051797520      2.00977970927126
  N   -7.34443449061780     -0.07543428187900      1.43020133993917
  C   -6.23184730608008     -0.02843547267833      2.19149537121189
  C   -1.64743715183382      0.12347722429874      5.30882204028084
  C   -0.47243843370287      0.13220081150029      6.10779556238679
  C   0.82261547665727      0.14396584131769      5.52348277816264
  C   6.85567191350331      0.07011905290720      5.40505330170969
  C   8.10271214760618      0.04290688018265      4.77780280070939
  C   8.17189453820391      0.03332641029816      3.37897388302714
  N   7.04801025298168      0.05119998957672      2.62055637659734
  C   5.83276167425134      0.07745300707776      3.20547561364932
  H   2.74805671038652      0.12920357001128      8.37721896627293
  H   0.49670459819119      0.11797702411507      9.43760751501447
  H   -2.00167677856379      0.09437410678757      9.22046169552678
  H   -4.03387766626998      0.06662133971652      7.78900233671847
  H   -7.66496585445104     -0.03303826628127      5.30737296624919
  H   -9.72040421582522     -0.12267577677941      3.84312275699506
  H   -9.44285689313281     -0.14662219390112      1.34137761402885
  H   -5.26271620443987     -0.00055985487215      1.66865136159922
  H   -1.55356495181349      0.13620654463212      4.21218170976014
  H   0.92020214798735      0.15341332638426      4.42681137868492
  H   6.77668870560857      0.07918814160856      6.50234188875196
  H   9.03219121804371      0.02856032521436      5.36512711653889
  H   9.13591786660494      0.01196092338621      2.84929079996285
  H   4.95268623872534      0.09236937102779      2.54343460878654
  C   5.94452873998817      4.18779126999357      0.59543839185875
  C   4.69400559523896      4.85297063375719      0.57057371234456
  C   3.61649519033150      5.45419552780367      0.55314158466924
  C   2.37539028363479      6.14778464558973      0.53955881392016
  C   2.33455137697097      7.57282168520121      0.72848650918041
  C   1.12642434735515      8.24589451970456      0.71594301361260
  C   -0.10371243002333      7.55191765215047      0.51419534478413
  C   -1.36395962789119      8.22021098771944      0.49295132404570
  C   -2.54133896131484      7.52224211122621      0.29447762429536
  C   -2.51988042262011      6.09625570625316      0.10790108390538
  C   -3.73156192123465      5.37856029086009     -0.08719105712605
  C   -4.78732166510372      4.75940223131693     -0.24510390703400
  C   -6.01677756764180      4.07612112983008     -0.41400298102803
  C   -7.25493800643140      4.76513691771284     -0.53696457975962
  C   -8.43612983189960      4.03755586959277     -0.69403415954372
  C   -8.38659510071762      2.63827710148516     -0.72525310821591
  N   -7.20973018316917      1.97506188383884     -0.60741164050773
  C   -6.05579466829498      2.65793648740843     -0.45905900563050
  C   -1.29214841229102      5.41827695645887      0.12485532204764
  C   -0.07235709327404      6.11919116599950      0.32529652836678
  C   1.17777757551439      5.44431692412469      0.34277910336023
  C   7.17688864762438      4.89523550165275      0.65552012692159
  C   8.37908875727344      4.18569565278853      0.67501220306181
  C   8.35530323824537      2.78593959294137      0.63760266651268
  N   7.18362737598174      2.10525447002918      0.58490477937294
  C   6.01015822546086      2.77023629942764      0.56269656415998
  H   3.27492559045637      8.11957910632313      0.88616735292147
  H   1.10457714066395      9.33647574449474      0.86451703462172
  H   -1.39175350955794      9.31089413164394      0.64015144659156
  H   -3.50545687385858      8.05015660416233      0.27998118350744
  H   -7.27092921208495      5.86467289975208     -0.50498525671628
  H   -9.40590907631411      4.54648994834082     -0.79353718994914
  H   -9.29723521185778      2.03266074487561     -0.84476955706826
  H   -5.12838263037203      2.07100272596889     -0.36684672908779
  H   -1.26873460185949      4.32765894043471     -0.02162728633352
  H   1.20423422924383      4.35363563228989      0.19664120025102
  H   7.17144630319933      5.99492287362798      0.68601993585513
  H   9.34514488098977      4.70919364269167      0.71975828023603
  H   9.28249682259071      2.19367894982245      0.65174479866859
  H   5.08788450322134      2.16937236812829      0.52007489900872
  Pd  7.19803132906251      0.05178749801655      0.57149707718759
  Pd  -7.18778555420436     -0.07884769944029     -0.61790247332610
  O   2.72613479946825      0.06159671945208      0.22394099315339
  C   1.49159618260201      0.03390527028859      0.12375988137840
  C   0.76455410207662      0.91441248445561     -0.84226132014307
  C   -0.65415125800417      0.88282185012152     -0.95601740353608
  C   -1.29183460754952      1.73059167554493     -1.88395373180126
  C   -0.54450028855778      2.59985106789605     -2.69130451050161
  C   0.85827236608603      2.63213091474469     -2.57805163252203
  C   1.50475934554246      1.79359925582572     -1.65889771059264
  C   0.65875870963298     -0.88387433832383      0.96240051566153
  C   -0.76031025667785     -0.91288141981189      0.85124620758139
  C   -1.50023814706053     -1.79277484539427      1.66738440970322
  C   -0.85295987422412     -2.63805518091459      2.57978575431194
  C   0.55037490745785     -2.61179847737248      2.68688576378085
  C   1.29717312399407     -1.73835054469150      1.88359568428136
  C   -1.48749115468901     -0.03015240957257     -0.11258922036586
  O   -2.72227376965477     -0.05545494208546     -0.21085008822736
  H   -2.38894964892597      1.69231012132810     -1.95831702379643
  H   -1.05377030372821      3.25646965382577     -3.41302118654011
  H   1.44625889710732      3.31445336597205     -3.21054630106621
  H   2.60039430548647      1.80339961776662     -1.55717820835644
  H   -2.59626311689071     -1.79880907738211      1.56981648082888
  H   -1.44091806439967     -3.32001332834130      3.21262905239394
  H   1.06054003195110     -3.27481348137815      3.40208623280319
  H   2.39442297620377     -1.70196661838749      1.95636961236867
