178
cage_7-isoquinoline_amide1_carbonate.xyz
Pd	-6.988041	-1.310592	0.182722
Pd	7.087386	1.343582	-0.199667
H	4.630748	2.753560	-0.807542
H	8.608901	3.348665	-1.998242
H	7.962951	5.218021	-3.533926
H	3.620912	7.126985	-4.723862
H	6.040056	6.657898	-4.567788
H	2.752877	4.065263	-1.761716
H	1.416831	6.611027	-4.136326
H	-4.322693	4.981356	-3.709293
H	-5.478026	0.952787	-1.053950
H	-9.251636	0.592889	0.743619
H	-9.690730	3.043535	0.541611
H	-6.907384	6.760813	-0.972316
H	-8.794637	5.377325	-0.099314
H	-4.566506	3.192882	-1.775299
C	5.339774	3.315409	-1.436791
N	6.632654	2.981295	-1.356118
C	7.561007	3.663709	-2.103712
C	7.188716	4.694079	-2.954008
C	3.975898	6.340068	-4.038559
C	5.333056	6.078816	-3.955139
C	5.820367	5.059823	-3.085012
C	4.858524	4.340212	-2.290930
C	3.470838	4.623701	-2.373904
C	3.021145	5.607807	-3.256968
N	1.663802	5.907127	-3.434485
O	0.668719	4.503754	-1.875006
C	0.615457	5.319292	-2.761434
O	-0.570364	5.870908	-3.284738
O	-2.717201	6.191837	-3.401764
C	-1.764124	5.273514	-3.010944
O	-1.978652	4.175615	-2.575562
N	-3.996698	5.743231	-3.104887
O	-3.930152	6.642821	-0.986099
C	-4.442748	5.901335	-1.805239
C	-6.394833	1.455440	-0.706999
N	-7.336468	0.691041	-0.137186
C	-8.508631	1.266909	0.293911
C	-8.739625	2.626250	0.178713
C	-6.830086	5.662608	-0.957738
C	-7.873337	4.896181	-0.460869
C	-7.745462	3.479261	-0.379987
C	-6.533278	2.859026	-0.857139
C	-5.500015	3.662027	-1.423472
C	-5.641205	5.046424	-1.455912
H	4.914731	1.598952	1.706769
H	8.676764	3.435032	1.430102
H	8.195288	4.919649	3.387543
H	4.217606	5.471781	6.178024
H	6.476105	5.686303	5.202483
H	3.222417	2.293759	3.383094
H	2.080297	4.522311	6.145442
H	-3.723682	3.118407	5.790905
H	-5.281878	0.236280	2.083123
H	-8.684764	-2.177492	2.522537
H	-8.606582	-2.004372	5.013425
H	-5.371057	0.023645	8.060124
H	-7.344669	-1.175760	7.107296
H	-4.037589	1.142860	4.083277
C	5.612490	2.356253	2.099437
N	6.800985	2.470945	1.496432
C	7.715680	3.384744	1.960978
C	7.433885	4.203450	3.044108
C	4.506155	4.823295	5.335411
C	5.772822	4.947028	4.790634
C	6.170769	4.127819	3.693858
C	5.223154	3.162406	3.199492
C	3.931686	3.034156	3.772355
C	3.560164	3.872310	4.826083
N	2.285423	3.843132	5.406860
O	1.289374	2.088909	4.257102
C	1.262799	2.987857	5.059719
O	0.150125	3.334625	5.851409
O	-1.868360	3.104359	6.626071
C	-1.080734	2.852154	5.521267
O	-1.448573	2.361694	4.489223
N	-3.146997	2.592763	6.456329
O	-2.549356	0.539450	7.310395
C	-3.333736	1.244777	6.700811
C	-5.995563	-0.249634	2.767543
N	-6.970325	-0.985694	2.216420
C	-7.899721	-1.595479	3.026358
C	-7.843740	-1.495326	4.405345
C	-5.537149	0.004125	6.971996
C	-6.623873	-0.675437	6.443024
C	-6.797179	-0.759719	5.031019
C	-5.848271	-0.096864	4.169960
C	-4.774873	0.649955	4.738202
C	-4.613118	0.683736	6.120276
H	5.325715	-0.826013	0.555199
H	9.337578	0.007024	1.453602
H	9.497662	-1.968448	2.983648
H	6.197048	-5.289486	4.400071
H	8.279942	-3.994785	4.104196
H	4.100044	-2.712113	1.595862
H	3.921974	-5.590415	3.962269
H	-2.035955	-6.116527	3.884621
H	-4.710191	-2.857113	1.331936
H	-8.432610	-3.915927	-0.286286
H	-7.942682	-6.355770	-0.071995
H	-3.931795	-8.788375	1.288377
H	-6.233299	-8.196670	0.519092
H	-3.010073	-4.604792	1.991202
C	6.230548	-1.103936	1.119165
N	7.315903	-0.339181	0.958734
C	8.476146	-0.654698	1.622747
C	8.549465	-1.749677	2.470603
C	6.203719	-4.423742	3.718499
C	7.373005	-3.700328	3.555476
C	7.408576	-2.572052	2.684259
C	6.200683	-2.233536	1.976274
C	5.009966	-2.986349	2.142603
C	4.999352	-4.071067	3.022632
N	3.851616	-4.833325	3.276031
O	2.315656	-3.856762	1.834666
C	2.618297	-4.650389	2.690306
O	1.747383	-5.596695	3.265060
O	-0.120065	-6.682944	3.502297
C	0.404360	-5.485121	3.062768
O	-0.224187	-4.550902	2.646093
N	-1.489987	-6.741626	3.281577
O	-1.209771	-7.615191	1.168508
C	-1.913616	-7.085292	2.009484
C	-5.394834	-3.663224	1.023823
N	-6.575540	-3.300486	0.504214
C	-7.476349	-4.268377	0.125734
C	-7.192101	-5.617051	0.246241
C	-4.261009	-7.738068	1.278321
C	-5.532601	-7.409101	0.834547
C	-5.931681	-6.043404	0.753554
C	-5.006095	-5.018987	1.173161
C	-3.726684	-5.384630	1.685559
C	-3.354702	-6.725615	1.720213
H	5.071352	0.300452	-2.003668
H	9.249340	-0.062481	-1.903802
H	9.244405	-1.671300	-3.822322
H	5.606842	-3.687277	-6.394832
H	7.834678	-3.050482	-5.539110
H	3.667987	-0.996408	-3.584249
H	3.277815	-3.568432	-6.257117
H	-2.621803	-4.352663	-5.598972
H	-4.931715	-2.184486	-1.807089
H	-8.975411	-1.095615	-2.066630
H	-8.959727	-1.253770	-4.558979
H	-5.366167	-2.050636	-7.770535
H	-7.588469	-1.608801	-6.715957
H	-3.544863	-2.612580	-3.870284
C	5.975476	-0.165590	-2.426769
N	7.151686	0.166763	-1.883651
C	8.311439	-0.372016	-2.385994
C	8.293814	-1.264734	-3.446772
C	5.682826	-2.954215	-5.575520
C	6.933174	-2.600470	-5.098180
C	7.059892	-1.662516	-4.031871
C	5.852347	-1.086509	-3.498411
C	4.576271	-1.445106	-4.003364
C	4.482749	-2.391576	-5.026372
N	3.257804	-2.839866	-5.537432
O	1.750054	-1.535175	-4.347892
C	2.012583	-2.404421	-5.140913
O	1.064563	-3.152530	-5.865876
O	-0.937443	-3.686180	-6.525753
C	-0.238131	-3.145223	-5.465899
O	-0.704530	-2.800036	-4.415203
N	-2.303922	-3.662731	-6.287935
O	-2.523413	-1.548881	-7.173221
C	-2.972336	-2.474920	-6.520899
C	-5.800969	-1.980625	-2.452639
N	-6.943254	-1.622852	-1.850293
C	-8.062845	-1.377021	-2.611079
C	-8.040975	-1.465099	-3.991632
C	-5.479107	-2.085401	-6.675971
C	-6.708824	-1.824659	-6.091092
C	-6.834861	-1.797323	-4.671914
C	-5.675648	-2.083126	-3.861826
C	-4.436822	-2.412481	-4.486319
C	-4.337448	-2.395256	-5.874560
