114
cage_3-pyridine_alkyne_carbonate.xyz
Pd	6.205172	-0.220215	-1.039251
Pd	-5.791129	0.202842	0.971095
H	-3.510396	2.061593	1.254390
H	-7.611029	2.373123	2.091562
H	-7.338551	4.739398	2.898605
H	-5.044768	5.797135	2.877423
H	4.269174	1.786096	-0.046045
H	8.422323	1.827813	-0.651372
H	8.586694	4.205917	0.148873
H	6.490401	5.411412	0.882952
C	-4.337055	2.685111	1.626172
N	-5.570345	2.137531	1.645126
C	-6.625149	2.861886	2.093669
C	-6.462335	4.179042	2.541487
C	-5.192033	4.764174	2.529723
C	-4.085925	4.008108	2.062191
C	-2.758154	4.518511	2.016084
C	-1.598451	4.906309	1.960785
O	-0.382746	5.390513	1.932588
O	1.766754	5.315072	1.564419
C	0.618345	4.556417	1.481531
O	0.514047	3.428540	1.104372
C	2.887046	4.748760	1.193649
C	3.973182	4.287102	0.868680
C	5.204114	3.689914	0.476369
C	5.210461	2.353039	0.010587
N	6.341022	1.725482	-0.376217
C	7.527720	2.379808	-0.326627
C	7.607958	3.704702	0.121292
C	6.447660	4.371765	0.527144
H	-3.978288	0.781143	-1.291704
H	-8.130237	1.089968	-0.765508
H	-8.434256	1.951423	-3.109154
H	-6.411266	2.235639	-4.594440
H	3.804562	0.522893	-2.594950
H	7.907599	0.454240	-3.472978
H	7.494291	1.290844	-5.808196
H	5.125846	1.756838	-6.554155
C	-4.951455	1.051061	-1.727730
N	-6.044114	0.906355	-0.949024
C	-7.268983	1.223410	-1.437127
C	-7.427254	1.702312	-2.744062
C	-6.306869	1.859760	-3.566174
C	-5.023689	1.529281	-3.058243
C	-3.828425	1.659702	-3.819708
C	-2.772151	1.759499	-4.430201
O	-1.684419	1.894240	-5.145544
O	0.465798	1.812829	-5.508053
C	-0.487147	1.576681	-4.539813
O	-0.313981	1.185129	-3.425388
C	1.714625	1.589299	-5.186243
C	2.903526	1.406783	-4.958960
C	4.268090	1.174344	-4.628049
C	4.598637	0.704409	-3.334419
N	5.870672	0.461355	-2.954368
C	6.887780	0.667459	-3.826893
C	6.646325	1.132874	-5.125774
C	5.334993	1.390531	-5.538281
H	-3.853079	-1.812879	0.006399
H	-8.021428	-1.814987	0.496796
H	-8.190178	-4.178855	-0.345417
H	-6.089583	-5.394974	-1.045822
H	3.924127	-2.076938	-1.326068
H	8.034475	-2.411149	-2.103782
H	7.765950	-4.785542	-2.885908
H	5.468625	-5.837874	-2.879299
C	-4.798836	-2.367290	-0.086837
N	-5.932199	-1.733285	0.280558
C	-7.124639	-2.372314	0.187761
C	-7.207398	-3.688814	-0.283807
C	-6.044311	-4.362091	-0.671201
C	-4.795142	-3.695337	-0.577357
C	-3.561514	-4.297707	-0.952820
C	-2.476013	-4.765998	-1.270227
O	-1.353529	-5.333327	-1.632548
O	0.798355	-5.410337	-1.985971
C	-0.205032	-4.575693	-1.541271
O	-0.102431	-3.448078	-1.162853
C	2.014556	-4.926856	-2.006549
C	3.176139	-4.544274	-2.059173
C	4.505071	-4.036243	-2.098307
C	4.753875	-2.707802	-1.677940
N	5.988808	-2.163436	-1.688576
C	7.047092	-2.896804	-2.113477
C	6.886490	-4.219054	-2.546920
C	5.614740	-4.800929	-2.543096
H	-3.389746	-0.529614	2.531940
H	-7.499205	-0.532512	3.382832
H	-7.088145	-1.391622	5.710949
H	-4.719063	-1.836144	6.465007
H	4.389990	-0.807153	1.219778
H	8.549750	-1.044190	0.720036
H	8.856801	-1.874534	3.073964
H	6.830659	-2.176067	4.553110
C	-4.186031	-0.733476	3.263137
N	-5.458818	-0.502627	2.878344
C	-6.478696	-0.734812	3.741092
C	-6.238693	-1.213313	5.035458
C	-4.926509	-1.459327	5.452657
C	-3.857089	-1.217791	4.551926
C	-2.491677	-1.439766	4.886437
C	-1.303242	-1.616853	5.120216
O	-0.053065	-1.831759	5.442433
O	2.097726	-1.898376	5.080568
C	0.898651	-1.588129	4.474767
O	0.723214	-1.196504	3.360725
C	3.184899	-1.755449	4.365891
C	4.243388	-1.651061	3.759979
C	5.439561	-1.512061	3.001419
C	5.365692	-1.052768	1.664416
N	6.459797	-0.897969	0.889527
C	7.687371	-1.186689	1.388255
C	7.847253	-1.647684	2.701430
C	6.725584	-1.814557	3.519762
