286
Coordinates from ORCA-job cage_L-4_anthracene-9,10-dione_orca_opt
  C   -0.09149890739389      3.04421935615260      6.03676719998577
  C   -0.11542085069309      3.90418844924641      7.28448965492106
  C   -1.34930741751156      4.22091980135163      7.92254666030887
  C   -2.66202145688627      3.83857400351512      7.32574416521749
  C   -3.61967249793418      3.11675505669227      8.07440367779267
  C   -4.85600928056717      2.75962028508039      7.52042454832069
  C   -3.01028818746428      4.21968729691259      6.00887295159623
  C   -4.24153632387069      3.86078645638572      5.44956064421118
  C   -5.18246702002679      3.10631631795255      6.18962807032806
  C   -6.49342147252756      2.72200165914535      5.60346771895844
  C   -6.58550882387608      2.02737681818657      4.34558795091287
  C   -5.45435513433934      1.56919849598139      3.60849772884153
  C   -5.61397182677703      0.90392637443167      2.40841121149179
  N   -6.85751369254970      0.66302010716485      1.87314588056056
  C   -7.94735899433084      1.05061892036915      2.54160002798954
  C   -7.88679786437705      1.72093603282409      3.79341273451417
  C   -9.07004069089853      2.07332932699190      4.50196056426384
  C   -8.96007791472895      2.69983891574582      5.73429393350499
  C   -7.68703638704742      3.01868225848558      6.27295816120218
  C   -1.35020681841271      4.90445279846236      9.15843671291169
  C   -0.15180491191069      5.29505725656687      9.76552556793987
  C   1.06381622398740      5.01060748471653      9.13410790150565
  C   1.09845395521019      4.32882760267541      7.89757485450719
  C   2.42788612734109      4.06280517388541      7.27560249499459
  C   3.46377378008793      3.44174218649515      8.01079243152343
  C   4.71782667860969      3.19758475343654      7.43593999991033
  C   2.71273263242798      4.46044165875823      5.94866024030434
  C   3.96159507990017      4.21323325895396      5.36830860097086
  C   4.98410085001090      3.55970417755339      6.09620905890876
  C   6.31401610854559      3.29604844215888      5.48684140828358
  C   7.48638347622173      3.71826938190230      6.12558900006921
  C   8.77295404847030      3.51814966962977      5.56217665584268
  C   8.91782627233885      2.88685498827552      4.33592976676440
  C   7.76021527292819      2.40963444760547      3.65870298539793
  C   6.44720134202774      2.59556590905726      4.23627258596829
  C   5.35079774524612      2.01819175590340      3.53131718545690
  C   5.54876680253534      1.35461726738866      2.33598753246891
  N   6.79808025406639      1.22945889760323      1.77516827770691
  C   7.85896696030721      1.73125813544545      2.41383167802365
  H   -0.12570263719390      3.63971058065801      5.09959237675758
  H   -0.96192116602745      2.36067745255857      6.00985967152185
  H   0.83071785200715      2.43356118474886      5.99240571294812
  H   -3.38016286292809      2.81156572250085      9.10409730339381
  H   -5.57048422843287      2.17610990264901      8.12204189530304
  H   -2.31177605030719      4.83759248407095      5.42448473818862
  H   -4.49712908895877      4.20966735849670      4.43702868021044
  H   -4.44156169451971      1.73225038724232      4.00076180309607
  H   -4.76073789476204      0.52449459744779      1.82590485006345
  H   -8.92613801107658      0.82787413502484      2.08710849453605
  H   -10.05576062925718      1.84087396871748      4.07175889372205
  H   -9.86493720133821      2.97205838101000      6.29746923775775
  H   -7.63449526353781      3.54381468201354      7.23866163392331
  H   -2.31116147278465      5.14844677127273      9.63593922062617
  H   -0.16580566204554      5.83200462856793     10.72512293076586
  H   2.00904045763221      5.33860883575707      9.59222581875580
  H   3.27364917476563      3.12646835284433      9.04783906399929
  H   5.49585946171688      2.69115023705053      8.02828221065038
  H   1.94849899849674      5.00380080482689      5.37293484970224
  H   4.16345332225265      4.57243114146973      4.34700414154749
  H   7.40257845875080      4.25211396756022      7.08429281395344
  H   9.65864094304322      3.88441429340432      6.10196484461544
  H   9.91228376016620      2.74715786981965      3.88582772375968
  H   4.33574754515286      2.08712722874667      3.94557903106893
  H   4.72303308295125      0.88514830576661      1.77974793188111
  H   8.84489526464791      1.60055644213395      1.93920489814386
  C   -0.29099070370610      6.02447619713135     -3.03870189236534
  C   -0.34384830894630      7.27154195760746     -3.89771488161175
  C   -1.59435656734939      7.84928476696724     -4.26171355403896
  C   -2.88977802594674      7.18789677133968     -3.92989340829670
  C   -3.90785480921393      7.88554114601847     -3.24066599026860
  C   -5.12882483451939      7.27133014288284     -2.93158502971010
  C   -3.15994917122632      5.85817610099453     -4.32837620445663
  C   -4.37474044579303      5.23811214126446     -4.01557635899081
  C   -5.37730277795059      5.92860450640140     -3.29411733114840
  C   -6.67129678786712      5.27614545884335     -2.96089746364278
  C   -6.72494567871802      4.01999275089104     -2.26020133248568
  C   -5.57651725796290      3.35211947398770     -1.74334103164235
  C   -5.69838836022287      2.14843508686835     -1.07648280206508
  N   -6.91891406070892      1.54287224401342     -0.89079776448544
  C   -8.02578637196192      2.14638314890188     -1.33302059560659
  C   -8.00550652743816      3.39689893390746     -2.00865328154397
  C   -9.20889805966509      4.03625422441445     -2.42022801141267
  C   -9.13940907467849      5.26969686869653     -3.05048776800431
  C   -7.88495233455204      5.87689719273381     -3.31649103451421
  C   -1.62887882025271      9.08621245364369     -4.94235490372108
  C   -0.44709252512292      9.75256676935077     -5.28416475943771
  C   0.78614449382297      9.18036248718955     -4.95364646097040
  C   0.85419945858084      7.94454134811528     -4.27352299964651
  C   2.20108932609254      7.38668408943566     -3.95599719330277
  C   3.16812501214582      8.16252271436617     -3.27703024456695
  C   4.43919109657423      7.64881554749722     -2.98711205701523
  C   2.57266463016631      6.08353870389998     -4.36168721379484
  C   3.83825687263241      5.56330083704318     -4.06787432661492
  C   4.79181347750444      6.33179001971359     -3.35886897790248
  C   6.14112290389061      5.78892901616199     -3.04854237939574
  C   7.29375909548009      6.49002922875351     -3.42306379631979
  C   8.59926358685651      5.99093983652323     -3.17892724875823
  C   8.78305375934953      4.76800697421355     -2.55125016631970
  C   7.64467856286443      4.02869215784693     -2.12201574070844
  C   6.31207382816797      4.54095051238747     -2.35255245655792
  C   5.23261967412451      3.77667342613879     -1.82095819343276
  C   5.46642678035315      2.58676275953702     -1.15878658992455
  N   6.73673573234325      2.08771883928705     -0.99128640571024
  C   7.78125003539322      2.78413668782301     -1.44909838175355
  H   -0.25421105646524      5.08703370014795     -3.63464443488201
  H   -1.18386333583864      5.95086492605921     -2.38875977705638
  H   0.60804764132479      6.02273936573974     -2.39291634178691
  H   -3.72963128254079      8.92445688050472     -2.92479759913287
  H   -5.89240933092887      7.83469450733821     -2.37265803735142
  H   -2.41185592052980      5.31488750641978     -4.92595230957830
  H   -4.57178817924138      4.21648254560148     -4.37687557421341
  H   -4.58199005994867      3.80403099685350     -1.85917295237657
  H   -4.83123656994900      1.61904556630216     -0.65332965808554
  H   -8.98645451170364      1.63745753310131     -1.15318414898614
  H   -10.17887203556772      3.55290469731665     -2.22945718245761
  H   -10.06097195896188      5.77999590507205     -3.36710274916564
  H   -7.86194498150629      6.84084117391531     -3.84693156881639
  H   -2.60170005805704      9.51758429199311     -5.22245863395527
  H   -0.48711553402595     10.71244114988030     -5.81929820897369
  H   1.71996867948623      9.68636098588843     -5.24143563943066
  H   2.91141648023990      9.18323633582021     -2.95625851854621
  H   5.16201140740941      8.27097460801466     -2.43660977156940
  H   1.86317418918779      5.48338790265127     -4.95188134672507
  H   4.11236225553688      4.56260262764507     -4.43751685593706
  H   7.18078792481333      7.44819260438861     -3.95262406525335
  H   9.46906094043910      6.57819506502185     -3.50843770116615
  H   9.79323974681937      4.36795167859287     -2.37689964110818
  H   4.20156764159577      4.14244086412272     -1.92201104086290
  H   4.65072348221602      1.98838160536497     -0.72496804902983
  H   8.78447256020515      2.35883662902272     -1.28480995065835
  C   0.09560141774510     -3.04636430333883     -6.02091641385035
  C   0.11816532943427     -3.90304528891642     -7.27093904657348
  C   -1.09644250269538     -4.31786921987823     -7.88918223892857
  C   -2.42612421212557     -4.04348778211956     -7.27138279556440
  C   -3.45265284338380     -3.40843400881501     -8.00763640189816
  C   -4.70675863574064     -3.15552361513067     -7.43683016164046
  C   -2.72093651624744     -4.44675872201603     -5.94832592672112
  C   -3.97021870294207     -4.19159578597470     -5.37224434932801
  C   -4.98292724110269     -3.52340839556722     -6.10058349631560
  C   -6.31339092339005     -3.24999842685329     -5.49686639230255
  C   -6.44718222050651     -2.55997260341453     -4.24049203811840
  C   -5.34901179645022     -2.00464707070144     -3.52057370419892
  C   -5.54802101292291     -1.35194364829905     -2.31945843977290
  N   -6.80030814557019     -1.21525384937904     -1.76812446394577
  C   -7.86257959212387     -1.69564914796185     -2.42064635933979
  C   -7.76236190906725     -2.36301634661831     -3.67131829923358
  C   -8.92076438434885     -2.81846630161083     -4.36201100657108
  C   -8.77453103466202     -3.43957353946853     -5.59327575539087
  C   -7.48623801239738     -3.65135076958430     -6.14826042595100
  C   -1.06245691190143     -4.99822690469137     -9.12647194804171
  C   0.15331673978667     -5.29051993098969     -9.75400140388800
  C   1.35226019468136     -4.90834789204327     -9.14264724017320
  C   1.35193409821665     -4.22690738095054     -7.90560129643775
  C   2.66514841625905     -3.85060922725834     -7.30611222328490
  C   3.62625442975803     -3.13159505295258     -8.05300291183006
  C   4.86261773643436     -2.77824952553942     -7.49677406186178
  C   3.01000902800923     -4.23337869180043     -5.98886478301661
  C   4.24150458071600     -3.87850042998607     -5.42739920039505
  C   5.18581018001325     -3.12648787488138     -6.16559534210858
  C   6.49626473878041     -2.74349089874337     -5.57738829202819
  C   7.69052601220977     -3.04219164007328     -6.24479278285049
  C   8.96311096444802     -2.72300596455611     -5.70525256646005
  C   9.07179786678716     -2.09236461141139     -4.47494572132062
  C   7.88785052035638     -1.73881831686223     -3.76811331030465
  C   6.58702614347878     -2.04802364871286     -4.31990059718800
  C   5.45505994261183     -1.59173504480778     -3.58288278759474
  C   5.61344111415891     -0.92412978664060     -2.38387441403586
  N   6.85673562194344     -0.67731517426523     -1.85103207329792
  C   7.94739152905717     -1.06425831868200     -2.51856069491898
  H   0.12146741683000     -3.64504412201097     -5.08545234275547
  H   -0.82211418523817     -2.42880686497804     -5.97839012595810
  H   0.97103434776647     -2.36951074562559     -5.98823840049682
  H   -3.25489820224378     -3.08917578628823     -9.04201458806934
  H   -5.47706097985029     -2.63787407673118     -8.02961532387338
  H   -1.96455114476398     -5.00112835538887     -5.37263163112845
  H   -4.18043442326811     -4.55628421305027     -4.35461269938228
  H   -4.33153909306860     -2.08265181772103     -3.92716310387883
  H   -4.72153520695578     -0.90184515534693     -1.74848071082104
  H   -8.85059384166426     -1.55606904548496     -1.95296825292111
  H   -9.91679822248877     -2.66942464572573     -3.91847979523407
  H   -9.66044952986310     -3.79062125428222     -6.14271008544206
  H   -7.40204637312392     -4.17535752273010     -7.11232967184842
  H   -2.00844171683472     -5.31876911298882     -9.58827999394952
  H   0.16686208306165     -5.82574773150455    -10.71456088400464
  H   2.31316213397888     -5.15844112437193     -9.61707869838389
  H   3.38939153308142     -2.82550926000249     -9.08304488038340
  H   5.57998202428452     -2.19689097523192     -8.09704321783345
  H   2.30841773833050     -4.84897459954034     -5.40571453865867
  H   4.49433872985440     -4.22824110444032     -4.41446449524247
  H   7.63889575433862     -3.57140016416193     -7.20831491165209
  H   9.86848339681829     -2.99573764353368     -6.26734847764876
  H   10.05707208097193     -1.85884422685320     -4.04430338078910
  H   4.44242084843208     -1.75833907570617     -3.97405491564351
  H   4.75989710073023     -0.54806530893693     -1.79955785170170
  H   8.92574031139216     -0.83734284578344     -2.06524426462614
  C   0.28540997931945     -6.04233625204598      3.02253628282344
  C   0.33993799830599     -7.29509925443332      3.87290615786384
  C   -0.85753076074231     -7.97477604165681      4.23812626765007
  C   -2.20429700584952     -7.41770059972655      3.91803809552660
  C   -3.16338759414376     -8.18723548421552      3.22105168655996
  C   -4.43369352659750     -7.67328059427287      2.92792334198392
  C   -2.58286447899263     -6.12115240907448      4.33818554995083
  C   -3.84771864505672     -5.60073272073015      4.04149463486378
  C   -4.79316932815510     -6.36248977642904      3.31469310871980
  C   -6.14241798494403     -5.81984987411628      3.00344906236691
  C   -6.31353552134061     -4.56401848220265      2.32174191211783
  C   -5.23369232141763     -3.79037298372956      1.80426371987447
  C   -5.46804780565679     -2.59351770788984      1.15484885998898
  N   -6.73931331938614     -2.09627668466995      0.98826407670149
  C   -7.78391025203309     -2.80060496044277      1.43335963673264
  C   -7.64663709379219     -4.05287915094825      2.09151428489622
  C   -8.78487144845176     -4.80052673655762      2.50642041107068
  C   -8.60055233345567     -6.03091308506532      3.11912117302919
  C   -7.29471810071670     -6.52899626529801      3.36351902913352
  C   -0.78873550155514     -9.21516742632343      4.90951547399076
  C   0.44505573307212     -9.78499977314722      5.24253343973592
  C   1.62613757290196     -9.11155563276052      4.91231509120735
  C   1.59078585238680     -7.87011464239922      4.23980522354494
  C   2.88534991905980     -7.20093327414623      3.92034196673580
  C   3.91144077904564     -7.89048857365076      3.23485167102935
  C   5.13206804356916     -7.26955454835659      2.93798677284256
  C   3.14664947336712     -5.87195094113470      4.32723233835190
  C   4.36084016352713     -5.24487303444428      4.02586995984745
  C   5.37181109634217     -5.92765208371351      3.30888576952639
  C   6.66579983291187     -5.26805260700164      2.98914920762625
  C   7.87863849528258     -5.86192975393973      3.35852982651703
  C   9.13262014708692     -5.24787129938351      3.10610321197644
  C   9.20221390845122     -4.01496251265246      2.47492357997335
  C   7.99991736931401     -3.38255762820462      2.04957708790351
  C   6.72004906499332     -4.01207719038370      2.28829275191785
  C   5.57355017263855     -3.35072702035588      1.75875532107297
  C   5.69607711225728     -2.14770834071898      1.09061102288689
  N   6.91563157022704     -1.53669183371994      0.91638156457872
  C   8.02091740674239     -2.13331261590973      1.37168176303138
  H   0.23483150318798     -5.11037078157883      3.62570980845909
  H   -0.60783831897315     -6.04275970686847      2.36865758448694
  H   1.18340753555167     -5.95623571054511      2.38137554903038
  H   -2.90052117880020     -9.20239058341404      2.88791368154443
  H   -5.15057624173236     -8.29026147865641      2.36394917896101
  H   -1.88038586295467     -5.52717839339179      4.94288568815989
  H   -4.12753497032493     -4.60544319973008      4.42131159132136
  H   -4.20219937329012     -4.15491288459905      1.90575587719247
  H   -4.65414828038342     -1.98651866189492      0.72958660549869
  H   -8.78758997529117     -2.37625470426032      1.26943211935519
  H   -9.79533705070489     -4.40134211466175      2.33171185149849
  H   -9.47013886942347     -6.62431050458110      3.43804428075807
  H   -7.18139295885242     -7.49375702117990      3.88086522267220
  H   -1.72224465762232     -9.72656725984819      5.18867098503625
  H   0.48591832860556    -10.74832888258464      5.77133745399168
  H   2.59900720325956     -9.54134735651868      5.19465894927572
  H   3.74010283928585     -8.92860917023331      2.91261613376848
  H   5.90253585144629     -7.82684204979405      2.38245031499046
  H   2.39257591584944     -5.33530404828807      4.92327128925520
  H   4.55083394951784     -4.22399850239955      4.39317665889572
  H   7.85493728660407     -6.82526833465739      3.89005670325260
  H   10.05353096154291     -5.75331187826851      3.43225822601978
  H   10.17153303320966     -3.52631880354649      2.29451438099243
  H   4.58015936929233     -3.80752769591979      1.86509308634716
  H   4.83062103907426     -1.62280840116586      0.65805850853776
  H   8.98074429928785     -1.61967520094217      1.20106697521487
  Pd  6.90552181358384      0.27869790384917     -0.03817787789085
  Pd  -6.90817697968960     -0.27896398230515      0.05227818839979
  O   2.75259414813714      0.01576010181790     -0.02099193788669
  C   1.51286124112135     -0.01638160030163     -0.01529330139840
  C   0.71421769370311      0.60639390027063     -1.11289306942135
  C   -0.70683175909629      0.57520087419931     -1.10382479618715
  C   -1.41972903661382      1.18171612347906     -2.15639346924738
  C   -0.74062009347431      1.81470288190358     -3.20574189764434
  C   0.66619929642692      1.84400690607005     -3.21588616280234
  C   1.38591507353580      1.24197230457958     -2.17554369639652
  C   0.75715986075260     -0.67584873972433      1.09103230376602
  C   -0.66412312511607     -0.70818927389869      1.09947584689959
  C   -1.33595849974481     -1.34198275542642      2.16298298453574
  C   -0.61638429903453     -1.93937524113084      3.20609932761393
  C   0.79023180657710     -1.90693850719284      3.19795001690320
  C   1.46967421036633     -1.27818812683275      2.14632979079804
  C   -1.46283889648839     -0.08485326913276      0.00220594118905
  O   -2.70241239626887     -0.11292795826072      0.00992245282408
  H   -2.51895855049369      1.14604688817465     -2.13111549082352
  H   -1.30704191761048      2.29065044962871     -4.02052688627579
  H   1.20149197242113      2.34374033789871     -4.03776824227134
  H   2.48589862595822      1.25236043277168     -2.16595931213340
  H   -2.43588499574886     -1.35810758128630      2.15243616704162
  H   -1.15145903511426     -2.43722562318029      4.02920433879326
  H   1.35706428303924     -2.38053568971407      4.01385324965919
  H   2.56903449602570     -1.24640167900415      2.12325013518810
