274
Coordinates from ORCA-job cage_L-4_quinone_orca_opt
  C   -0.09065740134633      3.02884964787074      6.04115777049449
  C   -0.11346108248229      3.88024364811009      7.29466177631812
  C   -1.34690253303510      4.19506911870432      7.93442120132586
  C   -2.65979901662866      3.82144401066713      7.33450378852124
  C   -3.62455824926523      3.10614275160862      8.08104651057421
  C   -4.85944853788804      2.75280478561068      7.52195474086677
  C   -3.00021919415561      4.20059042959153      6.01470633276566
  C   -4.23120387490377      3.84750718303665      5.45163315729085
  C   -5.17868036108539      3.09843014561597      6.18895846903351
  C   -6.48975166697810      2.72123475825551      5.59794813723269
  C   -6.58141352937786      2.02777595117119      4.33929065211750
  C   -5.45151095291997      1.56151423796780      3.60588656208521
  C   -5.61187275885368      0.89747829629098      2.40475036111603
  N   -6.85506114009026      0.66532409096511      1.86620316899534
  C   -7.94438839513774      1.06031043420235      2.53100780390475
  C   -7.88291383839110      1.73044540506341      3.78275388780586
  C   -9.06634606740047      2.09205151078389      4.48682121008875
  C   -8.95681010386394      2.71831177672493      5.71908583578379
  C   -7.68326232626119      3.02729744678112      6.26287478645342
  C   -1.34656724654964      4.86785120415018      9.17788671564659
  C   -0.14800208359558      5.25071800603046      9.78930913813221
  C   1.06680986041767      4.97017784887171      9.15503316779953
  C   1.10091782373828      4.29812657243523      7.91143927724011
  C   2.42943144726368      4.03919615781753      7.28654826097189
  C   3.46999825039940      3.42150345830556      8.01872244902592
  C   4.72201296328461      3.17971248891692      7.43904197235962
  C   2.70838962315189      4.43660546011910      5.95794520167551
  C   3.95624588979227      4.19386590925891      5.37401378843803
  C   4.98312803659427      3.54314028442992      6.09843605558933
  C   6.31258782057440      3.28536924322229      5.48510149141485
  C   7.48377754344876      3.71112695437285      6.12322764132367
  C   8.77053568532216      3.51776489086471      5.55743862603897
  C   8.91575678259753      2.89044553631804      4.32942661955189
  C   7.75904042807116      2.40953094191403      3.65279914073304
  C   6.44598606471823      2.58799262777953      4.23269123120882
  C   5.35147266897958      2.00745637934821      3.52769308111481
  C   5.55133044875636      1.34734731593028      2.33039184558369
  N   6.80039279515491      1.22868862674452      1.76878142559247
  C   7.85991205817924      1.73360921070172      2.40684566132277
  H   -0.12297918653991      3.63068411520661      5.10809230460602
  H   -0.96263278578794      2.34764026298175      6.00951524482994
  H   0.82984059363853      2.41608898491643      5.99376158418988
  H   -3.39041869741823      2.79906221356613      9.11139003754767
  H   -5.57883776730240      2.17323667059813      8.12142734017248
  H   -2.29610584336299      4.81303276884660      5.43134098457527
  H   -4.48041227125374      4.19404138896904      4.43672600635655
  H   -4.43859603635545      1.71506129154635      4.00165998657310
  H   -4.75761563962837      0.51325061190148      1.82757575727063
  H   -8.92318392794068      0.84428905479769      2.07348073739253
  H   -10.05220065574903      1.86713325674899      4.05292250352131
  H   -9.86180242934407      2.99661420256600      6.27902384787996
  H   -7.63084057849053      3.55379419720849      7.22782039122694
  H   -2.30726087640948      5.10838573088937      9.65764187492041
  H   -0.16136672477780      5.78043229186597     10.75283923989813
  H   2.01268088009649      5.29015274621365      9.61744022574682
  H   3.28386008371504      3.10219219794209      9.05521751355396
  H   5.50338230484636      2.67562284078218      8.02888043232284
  H   1.94022750806063      4.97589364441292      5.38368080761757
  H   4.15386512771403      4.55387832695517      4.35221027564253
  H   7.39957082771361      4.24115836968403      7.08398591160028
  H   9.65545855727854      3.88740474258559      6.09614389166715
  H   9.91018057246103      2.75593244030075      3.87766585374805
  H   4.33651766704737      2.06895000002461      3.94335190779052
  H   4.72717035333112      0.87599823935006      1.77425633343963
  H   8.84583904145616      1.60793529516758      1.93100019828406
  C   -0.28883721551083      6.03474150689765     -3.03060808880699
  C   -0.34229616007513      7.28291438468295     -3.88875422752199
  C   -1.59301183840717      7.85855887056552     -4.25524805839031
  C   -2.88751622960549      7.19303205190135     -3.93307634952539
  C   -3.92120161494098      7.89360774258122     -3.26910702490366
  C   -5.13986469923976      7.27350343723275     -2.96480811972434
  C   -3.14073093546669      5.85423362495482     -4.31284037472847
  C   -4.35485816906364      5.23004934886395     -4.00763393354433
  C   -5.37239178923323      5.92281037779676     -3.30952055560373
  C   -6.66497642926815      5.26510664307255     -2.98314993904689
  C   -6.71833555294442      4.01071198222466     -2.27831572007627
  C   -5.57203010335062      3.34669897196878     -1.75206285958037
  C   -5.69488110390717      2.14516818345582     -1.08073193519543
  N   -6.91580387261926      1.53957292318163     -0.90044560940838
  C   -8.02123240819977      2.13812079633921     -1.35226019903667
  C   -7.99915293434503      3.38530823824520     -2.03302924876705
  C   -9.20200720927887      4.01912125310200     -2.45522178200707
  C   -9.13249738807588      5.24969478765312     -3.09052268667845
  C   -7.87815063561205      5.86027718833879     -3.34936233608881
  C   -1.62796186593739      9.09832913608267     -4.93371387745133
  C   -0.44728053154212      9.76847606224062     -5.27085770409768
  C   0.78583514017872      9.19694622654228     -4.93950572294598
  C   0.85519926620731      7.95848471398720     -4.26139771639200
  C   2.20208991010127      7.40042534985698     -3.94882959506485
  C   3.17802338605143      8.18098349716004     -3.28688059421297
  C   4.44723663459585      7.66393224767553     -2.99670305038589
  C   2.56414328288689      6.08959710923771     -4.33902655567395
  C   3.82934787447745      5.56803750442699     -4.04818424386174
  C   4.79115057734782      6.34029830703111     -3.35455781288767
  C   6.13932122335101      5.79432351049639     -3.04717947462847
  C   7.29173142408926      6.49500308991311     -3.42293607993634
  C   8.59745893914266      5.99442583143003     -3.18303911018882
  C   8.78120677245667      4.77033724311055     -2.55814122860850
  C   7.64294370089235      4.03155147722154     -2.12711629450610
  C   6.30972926507737      4.54464690817848     -2.35298213775100
  C   5.23154984928396      3.77949983930369     -1.81995118385782
  C   5.46608618747715      2.58863110120345     -1.15907948143221
  N   6.73745365333038      2.09128939301589     -0.99595031240486
  C   7.78124418307137      2.78688237041335     -1.45576900087346
  H   -0.24905537805291      5.09938186703282     -3.62844369397866
  H   -1.18377528162964      5.96128446365297     -2.38328897785443
  H   0.60908502834577      6.03743920727547     -2.38309876374030
  H   -3.75491989012477      8.93752767809202     -2.96323838541858
  H   -5.91552915535221      7.83932396919134     -2.42538862543725
  H   -2.38098624035362      5.30366285002733     -4.88784951113955
  H   -4.53497333071554      4.20010629275394     -4.35307858048402
  H   -4.57677894484199      3.79704586849008     -1.86586642247276
  H   -4.82814548475478      1.62146224870350     -0.64962034894484
  H   -8.98172249731170      1.62737795073534     -1.17695065506605
  H   -10.17161393347770      3.53276885367883     -2.27026904239324
  H   -10.05358870043930      5.75606823094841     -3.41468612723134
  H   -7.85500272521705      6.82200959906777     -3.88374408506893
  H   -2.60098426215437      9.52816331782238     -5.21545751493537
  H   -0.48790414226824     10.72871712425832     -5.80518501898200
  H   1.71935954735162      9.70526864335259     -5.22415707575754
  H   2.92717547559768      9.20504497973078     -2.97207744210868
  H   5.17717601884341      8.29016598239499     -2.46042118744055
  H   1.84879567062898      5.48032541376022     -4.91175242688925
  H   4.09295501234151      4.56034592878962     -4.40537897380877
  H   7.17869771592778      7.45425296916770     -3.95043543752753
  H   9.46699151848102      6.58071218142347     -3.51492585373821
  H   9.79138971106434      4.36887014800550     -2.38702007484828
  H   4.19988608082137      4.14318412042545     -1.92007608624466
  H   4.65237642100298      1.98975998463846     -0.72196581438997
  H   8.78459952305298      2.36082068908309     -1.29452098557070
  C   0.08829565624070     -3.03304797248823     -6.04061502430642
  C   0.11164506707268     -3.88663932694297     -7.29260092015918
  C   -1.10279042114116     -4.30178426635324     -7.91105453485924
  C   -2.43159580072174     -4.03715390159726     -7.28907274325836
  C   -3.46762315764626     -3.41401209763132     -8.02298985993311
  C   -4.71987798285473     -3.16725010058071     -7.44588312564069
  C   -2.71572731848595     -4.43578842305583     -5.96194225553474
  C   -3.96403317991490     -4.18870751082913     -5.38082409563154
  C   -4.98585114056060     -3.53127822177269     -6.10637645837569
  C   -6.31559661444348     -3.26825143238502     -5.49594852022434
  C   -6.44878451294931     -2.57447781368090     -4.24146289584120
  C   -5.35331215851302     -2.00171054428832     -3.53162919366573
  C   -5.55295143238766     -1.34496274532875     -2.33243676798958
  N   -6.80289752357113     -1.22188879388607     -1.77379622470129
  C   -7.86331639915524     -1.71860993858296     -2.41678280602309
  C   -7.76255750508347     -2.39057838551028     -3.66487714376571
  C   -8.91991793214081     -2.86315360515012     -4.34625831428044
  C   -8.77452985932933     -3.48791739553896     -5.57554405737304
  C   -7.48723940447905     -3.68629343679164     -6.13835730180009
  C   -1.06863448873468     -4.97522029878223     -9.15382519930819
  C   0.14652808289425     -5.26056889664449     -9.78536050863981
  C   1.34509921995240     -4.88106551806563     -9.17197365030977
  C   1.34535347820701     -4.20571566819743     -7.92982323063474
  C   2.65838065715752     -3.83630482494668     -7.32777770318874
  C   3.62892022449687     -3.12900369686871     -8.07453407658767
  C   4.86394076920568     -2.77941908252200     -7.51341159047764
  C   2.99278189073903     -4.21052923466540     -6.00501378963141
  C   4.22370208955016     -3.86078049952511     -5.43973777643042
  C   5.17777370036320     -3.12124673766381     -6.17816823225373
  C   6.48892313602883     -2.74813165901735     -5.58478206206801
  C   7.68285869925176     -3.06449005799376     -6.24407020292473
  C   8.95632660648003     -2.76041406723049     -5.69733951057107
  C   9.06527097584399     -2.12838858450417     -4.46797420238750
  C   7.88157281253924     -1.75648671763870     -3.76973507942212
  C   6.58026580041463     -2.04853573348515     -4.32954234531063
  C   5.45051429248791     -1.57150245901495     -3.60283392053901
  C   5.61068049683276     -0.90106408197556     -2.40523723832472
  N   6.85333873128999     -0.67346915929586     -1.86352801626968
  C   7.94265837715363     -1.07929308516917     -2.52179114239032
  H   0.11612129101629     -3.63327591393746     -5.10637270283427
  H   -0.83070174519123     -2.41773093156748     -5.99670398803702
  H   0.96194260895188     -2.35410507309783     -6.00782348441396
  H   -3.27782272181495     -3.09494034817587     -9.05889418435824
  H   -5.49728667691503     -2.65814546041173     -8.03666027168890
  H   -1.95213777376805     -4.98135198327405     -5.38747593051888
  H   -4.16546317583734     -4.54865828745707     -4.35975273045730
  H   -4.33763682383473     -2.06647135520558     -3.94497444869496
  H   -4.72783787297881     -0.88005638275737     -1.77231700992145
  H   -8.84984175784616     -1.58983681493041     -1.94300513724925
  H   -9.91484879887602     -2.72494240462470     -3.89674963088851
  H   -9.65990622819179     -3.85072655420913     -6.11813507505723
  H   -7.40319429773832     -4.21400245966418     -7.10040536946116
  H   -2.01467129151899     -5.29317835145037     -9.61729008443407
  H   0.16009514343359     -5.79219666299644    -10.74783586093796
  H   2.30583836312388     -5.12418969569976     -9.65032121849269
  H   3.39874678600905     -2.82377811388814     -9.10633405752294
  H   5.58881629032120     -2.20790889272365     -8.11400658994139
  H   2.28305212462266     -4.81493863888127     -5.42009075091771
  H   4.46859310575767     -4.20492171336468     -4.42294619899912
  H   7.63059690310553     -3.59629427115142     -7.20611859594253
  H   9.86159171815085     -3.04661323293728     -6.25282060408588
  H   10.05093881994946     -1.90774934995741     -4.03144572617670
  H   4.43815009509181     -1.72070620685255     -4.00169815807547
  H   4.75710843534401     -0.50744530510256     -1.83338368942285
  H   8.92107446536543     -0.86683043370281     -2.06179050507552
  C   0.28468518580176     -6.03385391360004      3.03189669233341
  C   0.33881249821673     -7.28280266699643      3.88886235287673
  C   -0.85841744735539     -7.96076899741918      4.25773132448854
  C   -2.20527936888019     -7.40532069113747      3.94009123948985
  C   -3.17550527032486     -8.18632267381692      3.27044581422165
  C   -4.44455380788947     -7.67165787835931      2.97530346988685
  C   -2.57296184053405     -6.09698505740601      4.33324249521119
  C   -3.83815775340358     -5.57795970663981      4.03780183459858
  C   -4.79370711205336     -6.34997932550666      3.33532446185958
  C   -6.14175492405614     -5.80689349890054      3.02234125844268
  C   -6.31205778558358     -4.55433573526818      2.33328489071099
  C   -5.23314269987037     -3.78215614996896      1.81200146123202
  C   -5.46759482859718     -2.58859197941788      1.15596473750603
  N   -6.73969223671689     -2.09528621480216      0.98661378721040
  C   -7.78399559186173     -2.79727032722544      1.43538846464715
  C   -7.64562031782099     -4.04501762306133      2.10096881015168
  C   -8.78404672414234     -4.78941352846038      2.52178344904746
  C   -8.60003707132379     -6.01529516779194      3.14305359449742
  C   -7.29414113300719     -6.51275053226985      3.38841568737235
  C   -0.78894901717136     -9.19975142073622      4.93470240828023
  C   0.44428727325316     -9.76898919893578      5.26975480654883
  C   1.62468152654564     -9.09649564069094      4.93645338190705
  C   1.58959260078163     -7.85653017665140      4.25824719909812
  C   2.88387314843623     -7.18867007308970      3.94026636731545
  C   3.92154514607360     -7.88814877980205      3.28129783731322
  C   5.14001429094951     -7.26601922724277      2.98047106003142
  C   3.13253210202562     -5.84839737927473      4.31786045368627
  C   4.34626915413208     -5.22200334088032      4.01561759501228
  C   5.36824856562900     -5.91417007817304      3.32346289271301
  C   6.66075451190885     -5.25435854350243      3.00106377165046
  C   7.87357932584621     -5.84554922559103      3.37476103853602
  C   9.12770325265445     -5.23297129872801      3.11957941061565
  C   9.19720550872161     -4.00400026760665      2.48118925209950
  C   7.99485725966354     -3.37449846313693      2.05117452572051
  C   6.71441368735089     -4.00238423955294      2.29203822417541
  C   5.56891343571113     -3.34279090886834      1.75845488111093
  C   5.69212245145914     -2.14347133607663      1.08323700587539
  N   6.91256202272450     -1.53586098830286      0.90623419667939
  C   8.01724589991687     -2.12987960169057      1.36576329903315
  H   0.24046772647593     -5.09935208130083      3.63076727020998
  H   -0.61155620500066     -6.03822533757330      2.38200608522024
  H   1.18109968734410     -5.95724211974608      2.38703171421155
  H   -2.92064303714742     -9.20914753558001      2.95488287198015
  H   -5.16928965287542     -8.29733150903107      2.43135525585615
  H   -1.86272938475818     -5.48848084474873      4.91313940279346
  H   -4.10591901125792     -4.57164433859855      4.39574787230098
  H   -4.20071091001854     -4.14180101501514      1.91854065673101
  H   -4.65323518605566     -1.98364865207090      0.72854076921726
  H   -8.78785922279797     -2.37445231847232      1.26886607071460
  H   -9.79446932550042     -4.39046920262964      2.34628946014400
  H   -9.46962157987467     -6.60627365962781      3.46638864129609
  H   -7.18117613808405     -7.47331073298061      3.91353020718396
  H   -1.72245657776430     -9.70944850238265      5.21695464482211
  H   0.48514077307754    -10.72966965901982      5.80327488512496
  H   2.59762728848529     -9.52494543922876      5.22054889182334
  H   3.75843118382820     -8.93275619126488      2.97606923318411
  H   5.91919221468773     -7.83130854092161      2.44559015860737
  H   2.36876925410462     -5.29776180248445      4.88742619603410
  H   4.52300879920308     -4.19112491868926      4.36004608350443
  H   7.85016831437522     -6.80597880204780      3.91148300905558
  H   10.04839447966176     -5.73549831579368      3.45078277174322
  H   10.16655537095807     -3.51622190817313      2.29863191842749
  H   4.57412629741386     -3.79479669228335      1.86988233831875
  H   4.82662787980300     -1.62324304322054      0.64542758787209
  H   8.97737956270850     -1.61773282029432      1.19261948952489
  Pd  6.90329680566642      0.28024711707518     -0.04747465021355
  Pd  -6.90623192538641     -0.28036989188679      0.04595949032241
  O   2.69688600131592      0.09826859419212     -0.02153961240044
  C   1.45212850757677      0.05094010398943     -0.01160682242148
  C   0.72526957902830     -1.23883221750523     -0.00789841259900
  C   -0.63492154923511     -1.28952127638075      0.00091977204819
  C   -1.45645373189965     -0.05778068422302      0.00867021364763
  C   -0.72960723042971      1.23196430668204      0.00556677143489
  C   0.63050816085250      1.28265469843586     -0.00376632778970
  O   -2.70127922194584     -0.10434390465350      0.01762713511571
  H   1.34515996369240     -2.14915313180375     -0.01322664107400
  H   -1.18580867489675     -2.24331008523037      0.00262398795246
  H   -1.34980856442817      2.14205615048246      0.01137125774210
  H   1.18168744317969      2.23625749608322     -0.00601143360208
