186
cage_7-isoquinoline_NH_1-3-phenyl.xyz
Pd	-4.957627	0.569696	1.544433
Pd	5.468990	-0.620552	-1.708369
H	3.049412	-1.431159	-3.192100
H	6.703657	-3.313905	-2.363211
H	5.913804	-5.480864	-3.347850
H	1.627552	-6.890614	-5.174793
H	3.964121	-6.835922	-4.376266
H	1.135406	-2.666052	-4.227808
H	-0.433422	-5.861883	-5.320867
H	-2.698469	-4.867813	-4.611490
H	0.458293	-2.703298	-6.678506
H	-1.215593	-1.027844	-7.456864
H	-3.641916	-1.283263	-6.857502
H	-5.273504	-3.620049	-6.174618
H	-3.896788	-0.747559	-1.029479
H	-7.497788	-0.777136	1.115194
H	-8.651269	-2.125421	-0.651144
H	-7.209267	-3.859053	-4.944154
H	-8.531973	-3.268379	-2.941188
H	-3.681784	-1.927706	-3.268613
C	3.643593	-2.357738	-3.232488
N	4.883315	-2.310019	-2.723666
C	5.691479	-3.418588	-2.776610
C	5.238985	-4.612190	-3.320477
C	2.043873	-5.951090	-4.777745
C	3.349702	-5.923921	-4.332200
C	3.915596	-4.718582	-3.818277
C	3.081821	-3.538987	-3.790932
C	1.748554	-3.577022	-4.271837
C	1.207020	-4.777457	-4.760762
N	-0.094696	-4.905282	-5.195179
C	-2.360524	-4.013976	-5.217415
C	-0.999179	-3.882874	-5.564677
C	-0.591587	-2.789652	-6.362619
C	-1.536950	-1.857738	-6.809522
C	-2.895433	-1.998858	-6.483621
C	-3.307663	-3.082485	-5.685416
N	-4.693508	-3.283104	-5.402494
C	-4.942509	-1.090097	-0.980902
N	-5.656341	-0.711468	0.087899
C	-6.968835	-1.093298	0.205104
C	-7.594881	-1.845250	-0.776079
C	-6.734730	-3.299558	-4.121750
C	-7.474718	-2.971113	-3.007150
C	-6.883509	-2.238897	-1.934793
C	-5.491161	-1.864997	-2.045342
C	-4.736206	-2.229132	-3.190566
C	-5.345566	-2.934958	-4.244698
H	3.729613	1.694401	-2.212878
H	6.293179	-0.564240	-4.643190
H	5.540770	0.642122	-6.708321
H	2.136709	4.039139	-7.474023
H	3.928944	2.366388	-7.773840
H	2.173965	3.403831	-3.164036
H	0.549831	5.003975	-6.107847
H	-1.564666	5.280395	-4.681982
H	2.504129	5.908191	-3.274473
H	1.628786	7.309417	-1.407417
H	-0.835889	7.733387	-1.182645
H	-3.019803	7.756790	-3.105235
H	-3.265953	2.461818	-0.191981
H	-7.341655	1.977579	0.645522
H	-7.941750	4.079472	-0.576922
H	-5.287890	7.429784	-2.869659
H	-7.149361	6.140736	-1.882589
H	-2.418507	4.425093	-1.554771
C	4.092845	1.483437	-3.230824
N	5.011844	0.516110	-3.361424
C	5.531125	0.226213	-4.598332
C	5.101320	0.899164	-5.733255
C	2.543782	3.515853	-6.594306
C	3.545409	2.581937	-6.765355
C	4.092837	1.892049	-5.642247
C	3.572534	2.213733	-4.333950
C	2.558183	3.190831	-4.171246
C	2.021890	3.845891	-5.291742
N	0.996527	4.764203	-5.219996
C	-0.857824	5.703225	-3.952655
C	0.528165	5.474389	-4.090029
C	1.419510	6.044806	-3.153196
C	0.925344	6.841550	-2.112454
C	-0.450903	7.088546	-1.986330
C	-1.344845	6.516284	-2.910758
N	-2.740295	6.810868	-2.835051
C	-4.289332	2.850175	-0.316845
N	-5.273002	2.164515	0.276722
C	-6.570586	2.595934	0.164861
C	-6.891259	3.757746	-0.519280
C	-5.079080	6.477218	-2.357743
C	-6.119292	5.760915	-1.807401
C	-5.873194	4.529916	-1.129292
C	-4.510322	4.055148	-1.046663
C	-3.451441	4.793639	-1.636622
C	-3.715228	6.014846	-2.284206
H	4.585337	0.553376	0.839907
H	7.373147	1.725665	-2.062378
H	7.755574	3.931901	-0.933869
H	5.695188	6.042187	2.939385
H	7.082110	5.573507	0.950859
H	3.895044	2.080277	2.698105
H	3.929945	5.451283	4.292737
H	1.512329	5.047784	5.031552
H	4.671061	2.059213	5.075083
H	3.358006	0.710217	6.709382
H	1.136841	1.541486	7.547802
H	0.007344	4.259632	7.787338
H	-2.384021	1.496261	2.961850
H	-6.476019	2.354955	3.261063
H	-6.125846	3.787011	5.284726
H	-2.190217	4.933580	7.872857
H	-4.502988	4.739288	7.020930
H	-0.704677	2.469145	4.602523
C	5.263150	1.340279	0.473370
N	5.941182	1.080456	-0.653457
C	6.832660	2.000346	-1.146235
C	7.030149	3.219202	-0.513459
C	5.606565	5.067756	2.432708
C	6.383637	4.808578	1.322364
C	6.290247	3.553651	0.648874
C	5.371957	2.571298	1.176696
C	4.593489	2.844801	2.329396
C	4.687195	4.093709	2.965879
N	3.922844	4.457274	4.053609
C	1.914837	4.084103	5.377714
C	3.167131	3.627202	4.912973
C	3.674720	2.398429	5.391736
C	2.940712	1.650906	6.321583
C	1.703125	2.112282	6.797398
C	1.190362	3.335408	6.324587
N	-0.033716	3.853774	6.849755
C	-3.179692	2.036211	3.498999
N	-4.433104	1.870565	3.054360
C	-5.473045	2.506276	3.684305
C	-5.266098	3.302057	4.799454
C	-2.388662	4.350264	6.959696
C	-3.678579	4.242115	6.488714
C	-3.960453	3.478499	5.317142
C	-2.859003	2.835319	4.635988
C	-1.532331	2.973140	5.121912
C	-1.280666	3.714678	6.291327
H	3.886065	-2.548518	-0.152431
H	7.796555	-1.074248	0.203557
H	8.140785	-2.263269	2.382897
H	5.180693	-4.960404	5.158414
H	7.119584	-3.707772	4.277027
H	2.851545	-3.983630	1.609710
H	2.942685	-5.493471	5.012895
H	0.389549	-5.184906	5.107947
H	2.630640	-6.487663	1.615089
H	0.546898	-7.456948	0.652768
H	-1.617550	-7.336687	1.928469
H	-2.193155	-7.103248	4.824514
H	-3.017766	-1.753460	2.114573
H	-6.635401	-0.372794	3.728051
H	-6.839569	-2.373096	5.223463
H	-4.076331	-6.304157	5.874651
H	-5.871275	-4.609784	6.012211
H	-1.953532	-3.915189	2.913163
C	4.807335	-2.500325	0.449034
N	5.813975	-1.756351	-0.031951
C	7.000912	-1.683549	0.653707
C	7.175278	-2.344354	1.861439
C	5.103980	-4.457835	4.181442
C	6.188893	-3.758637	3.692067
C	6.117077	-3.100006	2.427735
C	4.881403	-3.197686	1.685798
C	3.781687	-3.934776	2.192810
C	3.870001	-4.566913	3.444171
N	2.828109	-5.258400	4.024467
C	0.428461	-5.663530	4.118543
C	1.648275	-5.740025	3.411522
C	1.677361	-6.380166	2.152230
C	0.506926	-6.935907	1.620660
C	-0.702996	-6.876876	2.330296
C	-0.739966	-6.239328	3.584832
N	-1.946372	-6.230234	4.352265
C	-3.835531	-1.923398	2.833204
N	-4.816836	-1.010850	2.864312
C	-5.875651	-1.167372	3.724960
C	-5.971752	-2.273543	4.554063
C	-4.017156	-5.394554	5.255364
C	-5.018752	-4.452013	5.333894
C	-4.966467	-3.270245	4.535965
C	-3.835441	-3.089132	3.654486
C	-2.802719	-4.061103	3.596753
C	-2.883169	-5.226359	4.381429
