118 

O	-0.85368	6.062797	3.898185
C	-0.871803	4.896936	3.610631
O	0.26494	4.107849	3.390189
C	1.456243	4.438067	4.050597
C	2.605398	3.949289	3.309258
C	3.669027	3.595412	2.803875
C	4.911316	3.186129	2.240596
C	6.156981	3.657132	2.731405
C	7.338839	3.198728	2.13982
C	7.273096	2.280834	1.084357
N	6.083291	1.833427	0.608103
C	4.932838	2.272498	1.16115
O	1.521931	5.009645	5.104697
C	-2.081854	4.129396	3.3737
C	-3.185879	3.616006	3.201357
C	-4.477473	3.049788	3.002278
C	-5.655461	3.654184	3.513819
C	-6.891875	3.045614	3.272593
C	-6.946563	1.861089	2.527282
N	-5.822209	1.281002	2.036865
C	-4.619627	1.849397	2.267905
H	6.183143	4.371418	3.568463
H	8.320469	3.543479	2.496053
H	8.184829	1.892056	0.606174
H	3.989551	1.892253	0.741773
H	-5.587391	4.58934	4.089611
H	-7.823786	3.486624	3.65534
H	-7.90466	1.363577	2.313445
H	-3.731895	1.344372	1.859521
O	0.265151	-3.770141	6.188141
C	0.003004	-3.47587	5.053712
O	0.940697	-3.355444	4.019566
C	2.120226	-4.110047	4.084216
C	3.178731	-3.470367	3.323054
C	4.167074	-3.055671	2.720438
C	5.322355	-2.595071	2.026543
C	6.603863	-3.173007	2.223153
C	7.69285	-2.675858	1.499195
C	7.499745	-1.627095	0.591345
N	6.276744	-1.068327	0.405155
C	5.216253	-1.530478	1.101289
O	2.227318	-5.171124	4.636258
C	-1.330246	-3.15305	4.576886
C	-2.5071	-2.902272	4.323754
C	-3.875932	-2.61321	4.057066
C	-4.921035	-3.035297	4.919868
C	-6.242589	-2.707301	4.598739
C	-6.509725	-1.965076	3.441376
N	-5.512824	-1.560323	2.61423
C	-4.232661	-1.875863	2.903757
H	6.729817	-4.001568	2.936567
H	8.69909	-3.101118	1.62737
H	8.33379	-1.221943	-0.000997
H	4.244034	-1.046474	0.926513
H	-4.685207	-3.610955	5.827623
H	-7.075866	-3.019901	5.245076
H	-7.537628	-1.684242	3.166493
H	-3.45414	-1.534836	2.205503
O	-1.044699	-6.245245	-3.488883
C	-1.162405	-5.080477	-3.221142
O	-0.153722	-4.118664	-3.366145
C	0.82141	-4.304273	-4.355744
C	2.048005	-3.611657	-4.002306
C	3.145336	-3.079454	-3.845284
C	4.420652	-2.465722	-3.685669
C	5.514944	-2.759631	-4.54068
C	6.736342	-2.110252	-4.330623
C	6.855607	-1.180308	-3.290483
N	5.81287	-0.901133	-2.46752
C	4.629321	-1.524357	-2.650848
O	0.657503	-4.917727	-5.37492
C	-2.352405	-4.489793	-2.634247
C	-3.421511	-4.136801	-2.139836
C	-4.666826	-3.755229	-1.563812
C	-5.846656	-4.526801	-1.730323
C	-7.033356	-4.092792	-1.129892
C	-7.035686	-2.915198	-0.37176
N	-5.909506	-2.175831	-0.210501
C	-4.757371	-2.57442	-0.790479
H	5.394622	-3.489431	-5.355884
H	7.60453	-2.315567	-4.974492
H	7.799571	-0.646035	-3.105435
H	3.811663	-1.275538	-1.958247
H	-5.818908	-5.45255	-2.324516
H	-7.965687	-4.666118	-1.240187
H	-7.951066	-2.552401	0.119057
H	-3.869104	-1.942831	-0.641035
O	-2.187254	3.531599	-5.932589
C	-2.05224	3.277027	-4.766788
O	-0.840978	3.347118	-4.065925
C	0.138216	4.253373	-4.49642
C	1.460039	3.809471	-4.0905
C	2.634645	3.571315	-3.815577
C	4.000487	3.318548	-3.500819
C	5.058449	4.091804	-4.046356
C	6.37628	3.794607	-3.682182
C	6.626695	2.749017	-2.784633
N	5.617818	2.003426	-2.266201
C	4.340957	2.271229	-2.613164
O	-0.08426	5.279775	-5.078607
C	-3.115461	2.791167	-3.904786
C	-4.108848	2.384533	-3.304919
C	-5.27318	1.909471	-2.636581
C	-6.582015	2.158318	-3.126401
C	-7.679474	1.653047	-2.421385
C	-7.469011	0.906364	-1.255262
N	-6.219007	0.665797	-0.785086
C	-5.14875	1.15481	-1.446802
H	4.834965	4.912849	-4.744562
H	7.219393	4.373704	-4.086348
H	7.650698	2.497604	-2.469793
H	3.552554	1.638822	-2.17925
H	-6.72162	2.740297	-4.049685
H	-8.706965	1.829058	-2.772262
H	-8.31159	0.489424	-0.683305
H	-4.15328	0.943655	-1.028858
Pd	-5.900984	-0.45062	0.919766
Pd	5.983948	0.470357	-0.936466
