202
cage_7-isoquinoline_amide2_1-3-phenyl.xyz
Pd	-7.082192	-0.514935	0.572480
Pd	5.635363	0.433789	-0.428251
H	3.652681	2.455379	-1.582293
H	7.412106	2.674431	0.264251
H	7.552149	5.141853	-0.087076
H	4.560900	8.331558	-2.254722
H	6.479828	7.273032	-1.034857
H	2.483137	4.530682	-2.431875
H	0.863928	6.283408	-2.119468
H	-1.411904	6.408320	-2.059050
H	0.855553	8.774498	-4.901480
H	-1.258497	9.841993	-5.692426
H	-3.467430	9.216826	-4.652408
H	-3.310415	5.473585	-2.521858
H	-5.373564	1.481204	-0.781905
H	-9.122318	1.655478	1.084555
H	-9.331956	4.112633	0.642623
H	-6.352574	7.344837	-1.499887
H	-8.271082	6.258815	-0.338952
H	-4.266533	3.538314	-1.703622
C	4.486254	3.092376	-1.246665
N	5.518533	2.478902	-0.649223
C	6.597680	3.222899	-0.229786
C	6.662625	4.589854	-0.425536
C	4.540331	7.263982	-1.988780
C	5.607061	6.673199	-1.333977
C	5.591724	5.275532	-1.063198
C	4.448478	4.493993	-1.471875
C	3.342178	5.138812	-2.105597
C	3.382773	6.507513	-2.358454
O	2.703870	8.125674	-3.942335
C	2.334945	7.266221	-3.150234
N	1.020822	6.917371	-2.905481
C	-1.391685	7.134456	-2.891097
C	-0.146633	7.514131	-3.439486
C	-0.107940	8.482005	-4.469502
C	-1.301294	9.078752	-4.900887
C	-2.533406	8.731582	-4.335375
C	-2.585136	7.736383	-3.337962
O	-4.839734	8.244163	-2.715734
C	-3.934549	7.424817	-2.754742
N	-4.074435	6.106222	-2.277165
C	-6.222492	2.107919	-0.465706
N	-7.229031	1.492653	0.168116
C	-8.330076	2.211572	0.563612
C	-8.430678	3.571977	0.317299
C	-6.331710	6.272551	-1.267291
C	-7.395247	5.658816	-0.629199
C	-7.379935	4.263212	-0.342368
C	-6.223108	3.499767	-0.745825
C	-5.138974	4.138508	-1.398670
C	-5.171561	5.515218	-1.658736
H	4.011205	1.584587	1.879960
H	7.758739	-0.261256	1.505011
H	8.283267	0.089681	3.920687
H	5.825470	2.248626	7.542518
H	7.556841	1.033451	6.194395
H	3.180619	2.432730	4.112641
H	1.851862	2.130564	6.073310
H	-0.381508	2.072090	6.543137
H	2.230785	4.878902	8.572742
H	0.304607	5.668389	9.951482
H	-1.979272	4.642485	9.653825
H	-2.404774	2.541844	5.912084
H	-5.081183	0.835058	2.278730
H	-8.768364	-1.011040	3.031144
H	-8.587781	-0.579252	5.492893
H	-5.123080	1.518590	8.228546
H	-7.195497	0.376768	7.449888
H	-3.659472	1.740603	4.142342
C	4.934893	1.249978	2.378077
N	5.858846	0.654288	1.609317
C	7.039722	0.231225	2.174842
C	7.318253	0.427657	3.514868
C	5.638502	1.984576	6.490788
C	6.600838	1.332734	5.739121
C	6.367727	1.064149	4.360661
C	5.116282	1.473461	3.768282
C	4.123726	2.105016	4.578618
C	4.376550	2.354106	5.925031
O	3.955603	3.920954	7.645070
C	3.458260	3.142754	6.839581
N	2.105356	2.905248	6.689758
C	-0.247929	2.895477	7.266480
C	1.042994	3.435260	7.460953
C	1.231553	4.454725	8.422738
C	0.143492	4.884843	9.195963
C	-1.129602	4.327388	9.031237
C	-1.335274	3.340110	8.045454
O	-3.490204	2.726294	8.885221
C	-2.719651	2.764886	7.938083
N	-3.062115	2.294261	6.654283
C	-5.823714	0.521644	3.029885
N	-6.918618	-0.103665	2.577462
C	-7.896362	-0.496046	3.458246
C	-7.780887	-0.256128	4.818423
C	-5.271843	1.294404	7.164657
C	-6.423819	0.668680	6.721515
C	-6.629656	0.392448	5.339107
C	-5.603958	0.794483	4.406009
C	-4.428339	1.436627	4.870896
C	-4.242306	1.686327	6.237389
H	4.165872	-1.874951	0.923065
H	7.665962	-1.494777	-1.356656
H	8.246977	-3.903459	-1.048663
H	6.097476	-7.515603	1.430006
H	7.655527	-6.172239	-0.004060
H	3.464974	-4.101962	1.892774
H	2.124339	-6.077388	1.814797
H	-0.092217	-6.529316	2.095578
H	2.896461	-8.548978	4.506787
H	1.103516	-9.920970	5.572367
H	-1.304347	-9.624295	4.886475
H	-2.023603	-5.885911	2.873429
H	-4.905830	-2.234325	1.603326
H	-8.841688	-2.958879	0.358055
H	-8.611520	-5.422953	0.748902
H	-4.878345	-8.186458	2.271929
H	-7.098448	-7.391546	1.468943
H	-3.372100	-4.110241	2.275666
C	5.047239	-2.370694	0.486467
N	5.888044	-1.602619	-0.222142
C	7.016086	-2.164077	-0.775042
C	7.325723	-3.500543	-0.602354
C	5.870977	-6.468870	1.178015
C	6.739696	-5.719167	0.404156
C	6.464445	-4.345555	0.151116
C	5.266151	-3.757169	0.701570
C	4.365369	-4.566497	1.459661
C	4.659880	-5.907053	1.694984
O	4.465587	-7.608622	3.323630
C	3.860941	-6.816744	2.609626
N	2.487630	-6.679377	2.556262
C	0.157953	-7.250294	2.893373
C	1.513468	-7.445219	3.240835
C	1.846649	-8.400791	4.228464
C	0.831578	-9.169324	4.816052
C	-0.508709	-9.005433	4.447828
C	-0.854234	-8.024042	3.496049
O	-3.078131	-8.858009	3.201792
C	-2.307892	-7.912624	3.130642
N	-2.712713	-6.625410	2.723054
C	-5.692748	-2.980150	1.408341
N	-6.868880	-2.519545	0.962987
C	-7.902143	-3.392964	0.727724
C	-7.759137	-4.754717	0.942801
C	-5.053521	-7.120794	2.076023
C	-6.285677	-6.668902	1.637717
C	-6.523720	-5.284343	1.401187
C	-5.442228	-4.358360	1.640827
C	-4.184143	-4.832339	2.091022
C	-3.970207	-6.200692	2.305338
H	3.829546	-0.942038	-2.466371
H	7.342567	1.340813	-2.650962
H	7.553874	0.997782	-5.116995
H	4.882273	-1.524420	-8.328242
H	6.626570	-0.077552	-7.255054
H	2.799249	-1.941046	-4.548706
H	1.173201	-1.884496	-6.290203
H	-1.091651	-2.164581	-6.400410
H	1.558350	-4.599168	-8.824793
H	-0.420744	-5.678494	-9.896705
H	-2.756286	-4.989060	-9.243193
H	-2.900130	-2.922847	-5.464529
H	-5.190736	-1.569434	-1.444005
H	-9.186694	-0.309386	-1.586512
H	-9.334659	-0.748306	-4.048025
H	-6.070095	-2.351077	-7.315702
H	-8.141969	-1.519636	-6.209213
H	-3.963652	-2.286497	-3.515435
C	4.624587	-0.512639	-3.096342
N	5.570654	0.206538	-2.474827
C	6.601338	0.749268	-3.207195
C	6.704913	0.557862	-4.572669
C	4.816885	-1.258999	-7.262249
C	5.789662	-0.477750	-6.663053
C	5.726035	-0.206299	-5.266974
C	4.630992	-0.747153	-4.496848
C	3.617974	-1.514033	-5.150096
C	3.704673	-1.765747	-6.516874
O	3.248728	-3.408758	-8.153699
C	2.774388	-2.685865	-7.285006
N	1.439019	-2.631065	-6.935404
C	-0.951315	-2.972020	-7.140547
C	0.359025	-3.322548	-7.535549
C	0.543276	-4.320228	-8.520820
C	-0.576273	-4.915136	-9.119602
C	-1.876185	-4.544807	-8.757255
C	-2.068871	-3.582248	-7.744967
O	-4.393241	-3.298520	-8.236158
C	-3.488777	-3.213443	-7.419575
N	-3.693894	-2.784137	-6.092764
C	-6.082380	-1.384108	-2.063977
N	-7.173205	-0.922993	-1.438401
C	-8.325626	-0.695898	-2.149890
C	-8.391803	-0.936993	-3.513213
C	-6.081579	-2.134415	-6.239970
C	-7.229500	-1.679759	-5.614994
C	-7.253550	-1.414737	-4.215301
C	-6.044900	-1.643608	-3.459589
C	-4.874841	-2.110730	-4.109835
C	-4.871516	-2.352009	-5.490548
