198
cage_7-isoquinoline_alkyne_1-3-phenyl-2-methyl.xyz
Pd	7.467135	0.085271	0.418934
Pd	-7.422915	-0.081990	-0.410024
H	-5.407009	1.401320	1.174926
H	-9.599128	1.337601	1.137629
H	-9.735151	3.029342	2.975740
H	-6.320082	5.382518	5.544251
H	-8.483163	4.559641	4.640006
H	-4.125783	2.854959	2.770037
H	0.344755	4.529054	3.344440
H	-1.182649	3.743826	3.871493
H	0.401569	3.202129	4.529689
H	-2.626128	6.829963	7.203811
H	-0.543042	7.719689	8.268700
H	1.697006	6.933536	7.463608
H	5.255547	1.490750	1.814969
H	9.436857	1.660492	2.077256
H	9.348072	3.406842	3.866182
H	5.634275	5.659693	6.087660
H	7.898925	4.916826	5.381753
H	3.785811	2.933043	3.251399
C	-6.346219	1.785868	1.604062
N	-7.489940	1.312994	1.096393
C	-8.690697	1.759988	1.590160
C	-8.752845	2.697106	2.608984
C	-6.330440	4.642293	4.730637
C	-7.534692	4.184034	4.228326
C	-7.560727	3.221884	3.176689
C	-6.303614	2.744213	2.651210
C	-5.077744	3.226160	3.177167
C	-5.068062	4.171318	4.215797
C	-3.847362	4.654617	4.756033
C	-2.781641	5.060906	5.228358
C	-0.188709	4.086343	4.211761
C	-0.303477	5.083695	5.330587
C	-1.568608	5.542130	5.801285
C	-1.639254	6.491165	6.858176
C	-0.475245	6.987211	7.450964
C	0.775625	6.549404	7.003373
C	0.872712	5.602634	5.950153
C	2.156962	5.169591	5.512306
C	3.269021	4.787690	5.136221
C	6.139402	1.941437	2.294402
N	7.340722	1.517239	1.886458
C	8.476625	2.044154	2.450150
C	8.414248	3.011549	3.440095
C	5.743987	4.893481	5.306043
C	7.004226	4.480723	4.913300
C	7.157704	3.488754	3.900803
C	5.969517	2.929510	3.300630
C	4.684787	3.364941	3.715090
C	4.549567	4.343517	4.713310
H	-5.243000	1.395772	-1.768583
H	-9.427973	1.580955	-1.944794
H	-9.369423	3.437272	-3.621118
H	-5.693222	5.845267	-5.740127
H	-7.945326	5.047956	-5.055743
H	-3.798249	2.932259	-3.128078
H	0.794364	3.320770	-4.479038
H	-0.755534	3.919328	-3.796417
H	0.816823	4.506899	-3.151744
H	-1.840595	7.303936	-6.972360
H	0.343594	8.268489	-7.724928
H	2.487410	7.364165	-6.794046
H	5.419746	1.581164	-1.121903
H	9.610847	1.649937	-1.020994
H	9.717959	3.436146	-2.769156
H	6.265868	5.816674	-5.260875
H	8.441671	5.011064	-4.370476
H	4.114048	3.079769	-2.657924
C	-6.134701	1.877094	-2.201423
N	-7.328942	1.427728	-1.799752
C	-8.474200	1.988011	-2.309493
C	-8.428592	3.016317	-3.237138
C	-5.789566	5.025538	-5.012978
C	-7.043143	4.583010	-4.631445
C	-7.179973	3.524658	-3.685961
C	-5.981875	2.928678	-3.143739
C	-4.704242	3.393342	-3.547966
C	-4.585331	4.439893	-4.476888
C	-3.312085	4.920555	-4.881082
C	-2.201653	5.342175	-5.217562
C	0.272951	4.213230	-4.073514
C	0.274799	5.332069	-5.077232
C	-0.934862	5.858361	-5.617739
C	-0.894976	6.914301	-6.569696
C	0.324981	7.451127	-6.989133
C	1.522719	6.948162	-6.470475
C	1.509576	5.895528	-5.518386
C	2.741344	5.402085	-5.000928
C	3.807116	4.977543	-4.545139
C	6.351799	2.018425	-1.514671
N	7.503091	1.556521	-1.014126
C	8.695684	2.065572	-1.466089
C	8.741857	3.054559	-2.435317
C	6.288744	5.034140	-4.488103
C	7.499809	4.585659	-3.993509
C	7.541485	3.571051	-2.993025
C	6.293003	3.028281	-2.511726
C	5.059883	3.499828	-3.030332
C	5.035013	4.498974	-4.016896
H	-5.211891	-1.525487	-1.753295
H	-9.381234	-1.538303	-2.195742
H	-9.274473	-3.221126	-4.043858
H	-5.543633	-5.497917	-6.212471
H	-7.811522	-4.718158	-5.560635
H	-3.730108	-2.949547	-3.193168
H	0.842277	-4.498484	-3.280872
H	-0.663514	-3.781495	-3.949006
H	0.948029	-3.171557	-4.462094
H	-1.658187	-6.885537	-7.427336
H	0.550501	-7.729821	-8.250014
H	2.668201	-6.891683	-7.204677
H	5.455409	-1.383449	-1.193998
H	9.644865	-1.423988	-1.028903
H	9.793285	-3.159250	-2.824469
H	6.399394	-5.500158	-5.430667
H	8.554672	-4.698959	-4.488137
H	4.185295	-2.856143	-2.784184
C	-6.088511	-1.924401	-2.288511
N	-7.291482	-1.474858	-1.913692
C	-8.419295	-1.941281	-2.542974
C	-8.346934	-2.873283	-3.565816
C	-5.661407	-4.762420	-5.403038
C	-6.923712	-4.328100	-5.041167
C	-7.088070	-3.372906	-3.995465
C	-5.908503	-2.876204	-3.327155
C	-4.621745	-3.333904	-3.709895
C	-4.475405	-4.272736	-4.744080
C	-3.192070	-4.733070	-5.139973
C	-2.071732	-5.117366	-5.488102
C	0.370991	-4.081458	-4.195411
C	0.402485	-5.084101	-5.314756
C	-0.792043	-5.571602	-5.921102
C	-0.723783	-6.523748	-6.975511
C	0.509683	-6.994332	-7.433184
C	1.693030	-6.527409	-6.851535
C	1.651606	-5.576835	-5.798334
C	2.869149	-5.112541	-5.223531
C	3.923143	-4.703293	-4.728094
C	6.396797	-1.803663	-1.583002
N	7.536592	-1.345765	-1.053177
C	8.739992	-1.833608	-1.499837
C	8.809057	-2.795305	-2.494814
C	6.403893	-4.738655	-4.636858
C	7.603565	-4.293434	-4.112482
C	7.621590	-3.306290	-3.084246
C	6.361437	-2.788043	-2.606320
C	5.140191	-3.257193	-3.154406
C	5.138617	-4.228843	-4.168388
H	-5.374364	-1.539679	1.154805
H	-9.555111	-1.758944	0.928374
H	-9.644567	-3.599512	2.620646
H	-6.173671	-5.945297	5.120553
H	-8.353967	-5.180989	4.205833
H	-4.056166	-3.046993	2.667740
H	0.380625	-3.319577	4.552273
H	-1.092476	-3.921423	3.718619
H	0.539791	-4.488249	3.219044
H	-2.441183	-7.378800	6.707972
H	-0.331876	-8.311614	7.680745
H	1.881420	-7.355252	6.995261
H	5.291071	-1.436145	1.746076
H	9.471802	-1.460240	2.062806
H	9.424974	-3.266662	3.792790
H	5.769952	-5.730220	5.883363
H	8.014048	-4.881031	5.234529
H	3.856888	-2.973135	3.120180
C	-6.299787	-2.024956	1.504364
N	-7.453133	-1.588845	0.985540
C	-8.638030	-2.154303	1.387647
C	-8.674320	-3.173607	2.325584
C	-6.204826	-5.136400	4.375739
C	-7.418566	-4.711785	3.866558
C	-7.471152	-3.666057	2.899024
C	-6.230783	-3.065148	2.468745
C	-4.995006	-3.512185	3.002353
C	-4.958992	-4.544633	3.953610
C	-3.727730	-5.003357	4.491326
C	-2.651179	-5.404997	4.942593
C	-0.091978	-4.210443	4.088054
C	-0.175065	-5.342605	5.073345
C	-1.424641	-5.899546	5.473990
C	-1.465766	-6.966178	6.413860
C	-0.287303	-7.485191	6.956290
C	0.948838	-6.953181	6.574584
C	1.016386	-5.888068	5.638697
C	2.286172	-5.364056	5.262600
C	3.386213	-4.913259	4.929940
C	6.184375	-1.868630	2.224730
N	7.374458	-1.389240	1.846036
C	8.521811	-1.891329	2.409194
C	8.482682	-2.891839	3.366857
C	5.860799	-4.933064	5.130821
C	7.109660	-4.460864	4.770073
C	7.238886	-3.429435	3.794346
C	6.038298	-2.893101	3.197769
C	4.765394	-3.387759	3.581072
C	4.654213	-4.405627	4.542280
