156
Coordinates from ORCA-job cage_L-2_naphthalene-1,4-dione_orca_opt
  C   -4.67465820610645      1.38191269840533      4.09449977469029
  C   -3.38435112152025      1.75882088464332      4.55179675275943
  C   -2.27709556511916      2.09653833906368      4.97766818872603
  C   -1.02004810211365      2.50895244376143      5.50831010124760
  C   -0.96034291127982      3.14620404899390      6.77820377882608
  C   0.27072198482540      3.55595046475687      7.30411012953223
  C   1.45560664269156      3.34565534496197      6.58879392233855
  C   1.42093795387878      2.70943977377148      5.31723992494796
  C   2.63166890253340      2.49974575771416      4.59466175798252
  C   3.70225087927795      2.33990550493513      4.00300046448725
  C   4.95979644087227      2.18174863268924      3.36279741711715
  C   6.17109069550935      2.62631143739601      3.96022734085787
  C   7.37962950529811      2.44631425675628      3.28269308788266
  C   7.38245947860774      1.83346999159307      2.02304165869587
  N   6.23049890574341      1.40791100940190      1.44932410575272
  C   5.05224716214947      1.56882159038025      2.08769407030621
  C   0.17754439787077      2.29332729718978      4.78624839394379
  C   -5.84684439924502      1.59086262732347      4.87115700115913
  C   -7.08759408427005      1.19837529660631      4.36235874835295
  C   -7.16139286277547      0.60499258030734      3.09569302695933
  N   -6.04608215876940      0.40403427647377      2.35159303288216
  C   -4.83783493994860      0.77480009282039      2.82328798103721
  H   -1.88800983016181      3.31469212861260      7.34349213997010
  H   0.30736999024295      4.04639383695127      8.28772878628734
  H   2.41961011059707      3.67106361120497      7.00480821153047
  H   6.14812922519636      3.10614724538714      4.94914480229682
  H   8.32997364579241      2.78104626983755      3.72268447140162
  H   8.31446932226374      1.67649435563009      1.45995883439103
  H   4.15274874565191      1.19739487729948      1.57313961442533
  H   0.14108524045319      1.79741016398235      3.80655819827225
  H   -5.76900397000336      2.05887809997522      5.86299548083006
  H   -8.00978451964746      1.34870373617761      4.94210838036379
  H   -8.12048354280365      0.28274239736902      2.66441905585641
  H   -3.96692430768363      0.58871205918989      2.17600268395068
  C   -4.36787755036122     -4.00051612352057      2.16542853742917
  C   -3.02766390835156     -4.42160898189844      2.37999786372056
  C   -1.87742680007859     -4.82041762444096      2.58149757264234
  C   -0.56707584764535     -5.32677960953317      2.82880683931082
  C   -0.40573701650876     -6.58017382780675      3.48105523925697
  C   0.87574067201344     -7.09193701023385      3.71781368405422
  C   2.01173100180713     -6.38206009301065      3.31133318979929
  C   1.87597554880364     -5.12708132539643      2.65602504619506
  C   3.03991959250927     -4.41832690710038      2.23518637400764
  C   4.07287924753250     -3.84397078053634      1.88096102489281
  C   5.28525318533971     -3.21069336635447      1.49645673945069
  C   6.55706420414491     -3.79889671951521      1.73758554632936
  C   7.71323584908607     -3.12654379633307      1.33349822997139
  C   7.60572717798079     -1.88224451764529      0.69863355507666
  N   6.39611133760360     -1.31634910140151      0.46621030351092
  C   5.26662807227170     -1.95078478835714      0.84606439169444
  C   0.58109949977139     -4.60425214221966      2.42468748568318
  C   -5.48321019521779     -4.80490435219687      2.52692641378050
  C   -6.77685632614855     -4.33688681214401      2.28149382470950
  C   -6.95928712325861     -3.08308163102566      1.68337324953600
  N   -5.89973310664803     -2.31099845176089      1.33937641560760
  C   -4.64214916998542     -2.74388217207741      1.56862501482652
  H   -1.29481014200083     -7.14355868131700      3.79790460294235
  H   0.99084800183656     -8.06153728628972      4.22384352867209
  H   3.01568483052620     -6.79006179366229      3.49623002169383
  H   6.62140793861657     -4.77569971579631      2.23805391963813
  H   8.70886366081815     -3.55947427538058      1.50762091464037
  H   8.49477783528689     -1.32434606835568      0.36943737334344
  H   4.31398329086371     -1.44530571814570      0.62642725543127
  H   0.46612215641931     -3.63274316785181      1.92545134166236
  H   -5.32058216070501     -5.78693188695981      2.99402659046411
  H   -7.65626972786394     -4.93908325044741      2.55159576925768
  H   -7.96327447343572     -2.68503755098500      1.47405169237214
  H   -3.82456296331189     -2.07041141181135      1.26920593549496
  C   -4.89593491836789     -1.98631966750957     -3.34333907972882
  C   -3.63932995011343     -2.11872441439798     -3.99307270893777
  C   -2.56835928623574     -2.25377981916078     -4.59084686814025
  C   -1.35855226491893     -2.43231162088738     -5.32479610329586
  C   -1.40052387371843     -3.01141191192903     -6.62334746683667
  C   -0.21903756111911     -3.19878062494517     -7.35068815955876
  C   1.01657114315797     -2.82440434070464     -6.80911772650399
  C   1.08429039987177     -2.24366959789001     -5.51268234063503
  C   2.34898150266418     -1.87326822863161     -4.96701372890846
  C   3.46125885069297     -1.56745466633274     -4.52900172060351
  C   4.75708641873453     -1.22142472896363     -4.05968317156082
  C   5.92783088871920     -1.41930146972903     -4.84138750062423
  C   7.17264561352619     -1.05961802310468     -4.31779871287979
  C   7.25176457611947     -0.50701666528615     -3.03276077950249
  N   6.13846320085718     -0.31578366342127     -2.28360570668993
  C   4.92684759094015     -0.65858760563932     -2.76941448527016
  C   -0.11048907235678     -2.04775055914304     -4.77902036589453
  C   -6.11121581109802     -2.39479910991598     -3.95828466284867
  C   -7.31685549447572     -2.24177902127185     -3.26883460053621
  C   -7.31397921937368     -1.68638819447543     -1.98251291096191
  N   -6.15900506913299     -1.29420396708399     -1.39161946827488
  C   -4.98301998666444     -1.43505563837815     -2.03972273018894
  H   -2.36787136039411     -3.31063979119834     -7.05123785104194
  H   -0.26172719561255     -3.64469352986233     -8.35500299413223
  H   1.94210664746565     -2.97731861393325     -7.38235954595265
  H   5.84658579485327     -1.85211392024142     -5.84880981701212
  H   8.09373148264011     -1.20317088585912     -4.90102356011291
  H   8.21425968771187     -0.20947046709947     -2.59118463093545
  H   4.06202791144952     -0.48453349876179     -2.11094552182783
  H   -0.06789650432339     -1.59585115401873     -3.77907908639080
  H   -6.09354454225259     -2.82681727269700     -4.96909049546223
  H   -8.27026702742494     -2.54984215991914     -3.72157602069393
  H   -8.24479587584777     -1.54903196150753     -1.41226051303218
  H   -4.08010508158018     -1.09882137928569     -1.50760576031742
  C   -5.19539681676551      3.36192378758721     -1.27077718125138
  C   -3.98360830803817      4.02677470898610     -1.59562077470494
  C   -2.95264635227696      4.63167686153283     -1.90065536987556
  C   -1.78839545982496      5.36934880527035     -2.26456113380822
  C   -1.91850465182725      6.67672215519789     -2.80882009227294
  C   -0.77914853612754      7.40761702187813     -3.16593247255700
  C   0.49871907375541      6.86303298025911     -2.99159073249588
  C   0.65353522086192      5.55744117056928     -2.44928970764994
  C   1.95948220851893      5.01397629467599     -2.27148924332687
  C   3.10625880556970      4.58063535109796     -2.13372916087397
  C   4.44392035486248      4.12709880778190     -1.98642858121486
  C   5.55865283606681      4.91510650473750     -2.38330272934517
  C   6.85188695613855      4.41560938381392     -2.20788230657839
  C   7.03348164972084      3.14735136438078     -1.64181762246007
  N   5.97347743576273      2.39227275367140     -1.26219443827995
  C   4.71580078833096      2.85384453127202     -1.42539134830557
  C   -0.49736516252403      4.81718799703907     -2.09054108345101
  C   -6.46805809710950      3.94493501733532     -1.51997655602696
  C   -7.62598395045166      3.24086628170187     -1.18071598995624
  C   -7.51883062584704      1.97087889879761     -0.59933504040175
  N   -6.30786434591964      1.41154873107104     -0.35747484839023
  C   -5.17628136311806      2.07464384497392     -0.67639015856382
  H   -2.92018160266270      7.10822967143091     -2.94707105221934
  H   -0.88866613673490      8.41783708281502     -3.58632180474232
  H   1.39061423020364      7.44054362500191     -3.27312854718314
  H   5.39583670198227      5.90956423226172     -2.82310705461154
  H   7.73074667916425      5.00504761808624     -2.50622160478106
  H   8.03657637481242      2.72340942663434     -1.48583338195496
  H   3.89659592706634      2.19477145080943     -1.09983755523114
  H   -0.39058614559185      3.80515029917766     -1.67669634839498
  H   -6.53061641779854      4.94269416903566     -1.97738058964631
  H   -8.62229807704042      3.66879186106174     -1.36304287869860
  H   -8.40853168901099      1.38750927572345     -0.31992291230771
  H   -4.22318992077377      1.57166498215105     -0.45259738944239
  Pd  -6.14069680431291     -0.45366006563218      0.48722462214534
  Pd  6.22346419054698      0.53733006916390     -0.41281147579380
  O   -2.61662958025140     -0.29565610288808      0.30199070518631
  C   -1.38197834859334     -0.23881347791876      0.17285177855431
  C   -0.66097568869197      1.00903829548939      0.52620404188022
  C   0.68167197548883      1.12932980708489      0.37419017276227
  C   -0.57896001429218     -1.38193254669536     -0.33851057474727
  C   0.82897839506395     -1.25091650784694     -0.51338962539162
  C   1.56648630045163     -2.33696942973635     -1.02165696263564
  C   0.92783940288042     -3.54306397318291     -1.35076748838057
  C   -0.45780234168838     -3.67706636548204     -1.16391512535282
  C   -1.20529726388299     -2.60115939634990     -0.65895994612575
  C   1.51445956109743      0.01969324742536     -0.15258808644839
  O   2.74229279688986      0.17140360801224     -0.27164469730738
  H   -1.27654464871652      1.83558292291680      0.91601249127685
  H   1.21388932598329      2.05804652297613      0.63554224106440
  H   2.65133225779145     -2.22803613096667     -1.15836307354235
  H   1.51409497530930     -4.38433686348118     -1.74970610390566
  H   -0.95802948491117     -4.62558665038864     -1.41014171219104
  H   -2.28637009484702     -2.70786189835821     -0.49223135897206
