250
cage_7-isoquinoline_1-4-phenyl_1-3-phenyl.xyz
Pd	8.739362	0.136857	0.422607
Pd	-8.821459	-0.112397	-0.405756
H	-6.681649	1.246178	-1.990973
H	-10.846561	0.931039	-2.346808
H	-10.867621	2.297725	-4.442647
H	-7.315246	4.392127	-7.029540
H	-9.511384	3.599943	-6.218295
H	-5.311708	2.477850	-3.685406
H	-1.770901	5.077715	-4.839512
H	-3.940985	4.288676	-3.967654
H	-5.395864	3.826796	-8.039498
H	-3.226106	4.603977	-8.900558
H	0.157088	4.401690	-5.906030
H	-1.865079	6.456582	-9.149417
H	0.334466	7.210846	-10.034023
H	2.446943	6.575482	-8.884289
H	4.112680	2.409046	-4.925919
H	2.015908	3.072734	-6.042593
H	3.752309	6.927903	-7.021276
H	5.850464	6.270235	-5.919723
H	6.713182	1.372827	-1.391939
H	10.893881	1.524549	-1.126261
H	11.059204	3.065528	-3.090154
H	7.697872	5.025475	-6.014335
H	9.828943	4.396631	-4.935836
H	5.464006	2.660824	-3.135909
C	-7.586390	1.499107	-2.567088
N	-8.754347	1.041256	-2.102009
C	-9.916597	1.332222	-2.774110
C	-9.915379	2.088068	-3.933634
C	-7.362220	3.784104	-6.113836
C	-8.596523	3.349404	-5.660948
C	-8.693689	2.582493	-4.465951
C	-7.478728	2.280374	-3.748068
C	-6.227246	2.744779	-4.234840
C	-6.141086	3.495868	-5.412593
C	-2.553328	4.770113	-5.549183
C	-3.782753	4.323398	-5.056859
C	-4.841819	3.980457	-5.931482
C	-4.612226	4.112488	-7.321790
C	-3.378589	4.550591	-7.812291
C	-2.316813	4.889458	-6.940039
C	0.197259	5.018846	-6.816850
C	-1.009374	5.357441	-7.467613
C	-0.941137	6.153184	-8.635245
C	0.295353	6.592910	-9.124647
C	1.483291	6.247079	-8.468052
C	1.452256	5.447967	-7.300992
C	4.034031	3.418854	-5.356425
C	2.845831	3.793399	-5.989119
C	2.709937	5.056539	-6.614445
C	3.826607	5.925604	-6.574871
C	5.019397	5.549222	-5.950271
C	5.151722	4.287483	-5.321976
C	7.655719	1.772301	-1.799862
N	8.789422	1.398973	-1.195085
C	9.995163	1.862881	-1.661303
C	10.073899	2.715782	-2.748785
C	7.678330	4.372217	-5.129333
C	8.877638	4.014698	-4.536643
C	8.891985	3.137866	-3.415682
C	7.629846	2.641456	-2.922419
C	6.415134	3.029543	-3.548698
C	6.411226	3.888637	-4.653618
H	-6.653695	-1.764248	-1.633099
H	-10.839430	-1.986033	-1.579291
H	-10.842898	-4.069491	-2.965250
H	-7.252027	-6.750973	-4.866328
H	-9.465968	-5.876134	-4.202113
H	-5.265221	-3.492868	-2.793269
H	-1.603133	-4.740931	-5.166988
H	-3.788478	-3.804424	-4.503059
H	-5.411127	-7.828208	-4.211400
H	-3.226405	-8.754012	-4.863684
H	0.239430	-5.884287	-4.396828
H	-1.761085	-9.023274	-6.627449
H	0.449718	-9.970651	-7.263949
H	2.556747	-8.902691	-6.484149
H	4.106986	-5.074663	-2.157986
H	2.016326	-6.112852	-2.958659
H	3.933659	-7.071264	-6.731541
H	6.025250	-6.048001	-5.937237
H	6.736558	-1.617335	-0.934725
H	10.925001	-1.472005	-0.842025
H	11.123269	-3.425967	-2.391503
H	7.799096	-6.225312	-4.583784
H	9.920034	-5.219114	-3.815912
H	5.514935	-3.312456	-2.311402
C	-7.559017	-2.308217	-1.947441
N	-8.737712	-1.808439	-1.558704
C	-9.900578	-2.440239	-1.926852
C	-9.889710	-3.593410	-2.692367
C	-7.307370	-5.839896	-4.252184
C	-8.551172	-5.351273	-3.889238
C	-8.657464	-4.160888	-3.116371
C	-7.441086	-3.485984	-2.731981
C	-6.179382	-4.009370	-3.122974
C	-6.084493	-5.182125	-3.880873
C	-2.428348	-5.426700	-4.923749
C	-3.666286	-4.897876	-4.548024
C	-4.775216	-5.739342	-4.290024
C	-4.585922	-7.134744	-4.432465
C	-3.344357	-7.662050	-4.799547
C	-2.233295	-6.823038	-5.053861
C	0.286648	-6.785684	-5.027177
C	-0.918129	-7.389050	-5.449603
C	-0.840666	-8.545853	-6.260228
C	0.403324	-9.070066	-6.633726
C	1.589216	-8.459525	-6.206289
C	1.548479	-7.305055	-5.389572
C	4.070182	-5.483079	-3.179090
C	2.886061	-6.071193	-3.631339
C	2.802473	-6.667114	-4.913022
C	3.966671	-6.646242	-5.718022
C	5.155019	-6.066473	-5.263857
C	5.234836	-5.466263	-3.984266
C	7.688809	-2.048701	-1.283432
N	8.815633	-1.479868	-0.839646
C	10.032485	-1.977227	-1.237690
C	10.129413	-3.058924	-2.096089
C	7.767008	-5.348749	-3.919693
C	8.959941	-4.796418	-3.484672
C	8.955448	-3.686528	-2.593805
C	7.681382	-3.162034	-2.164669
C	6.473849	-3.748381	-2.629881
C	6.488310	-4.841948	-3.503236
H	-6.797957	-1.401759	1.377607
H	-10.986329	-1.234698	1.328746
H	-11.162616	-2.643820	3.388834
H	-7.807655	-4.688331	6.262465
H	-9.940279	-3.946356	5.259239
H	-5.556953	-2.621575	3.176547
H	-2.047515	-5.110724	4.611349
H	-4.147208	-4.363527	3.550739
H	-6.025922	-4.125368	7.465169
H	-3.925682	-4.859929	8.515385
H	-0.266103	-4.439521	5.877097
H	-2.524897	-6.647600	8.851809
H	-0.399092	-7.352744	9.933332
H	1.793328	-6.617249	9.015805
H	3.695121	-2.312147	5.312714
H	1.523892	-3.063825	6.207963
H	3.288237	-6.876832	7.296875
H	5.460143	-6.130015	6.419155
H	6.590553	-1.172049	2.032095
H	10.779998	-1.177271	2.177954
H	10.805571	-2.719576	4.147580
H	7.243473	-4.812779	6.721778
H	9.447685	-4.101518	5.861662
H	5.221787	-2.509765	3.644473
C	-7.744799	-1.697387	1.857735
N	-8.877634	-1.270937	1.287466
C	-10.088634	-1.613051	1.838171
C	-10.173414	-2.392255	2.979047
C	-7.786289	-4.058759	5.360569
C	-8.985118	-3.651919	4.799733
C	-8.992696	-2.858599	3.618162
C	-7.724933	-2.499319	3.029570
C	-6.511301	-2.933579	3.627045
C	-6.513506	-3.712958	4.789524
C	-2.910149	-4.862154	5.247378
C	-4.099849	-4.439307	4.648196
C	-5.255120	-4.170676	5.421273
C	-5.162422	-4.352059	6.821992
C	-3.968690	-4.766092	7.420164
C	-2.811286	-5.030948	6.649799
C	-0.294399	-5.079190	6.772543
C	-1.546829	-5.473432	7.291824
C	-1.566180	-6.299394	8.440118
C	-0.369478	-6.711944	9.039480
C	0.864674	-6.309706	8.513262
C	0.921093	-5.481261	7.367792
C	3.609675	-3.331353	5.719236
C	2.379044	-3.755996	6.226793
C	2.226140	-5.034130	6.816749
C	3.370963	-5.864667	6.874990
C	4.605547	-5.437866	6.377171
C	4.754542	-4.162011	5.782326
C	7.502089	-1.539743	2.530451
N	8.675789	-1.125557	2.039537
C	9.845511	-1.549152	2.621680
C	9.846888	-2.403020	3.711210
C	7.288927	-4.154379	5.841571
C	8.527347	-3.751302	5.371223
C	8.620747	-2.868681	4.258598
C	7.396538	-2.413526	3.644682
C	6.140456	-2.846615	4.147925
C	6.058648	-3.712289	5.244494
H	-6.825210	1.604621	1.012343
H	-10.994403	1.692488	0.581142
H	-11.190197	3.767838	1.964672
H	-7.876438	6.549068	4.195361
H	-9.990306	5.609619	3.327010
H	-5.604443	3.369790	2.300170
H	-2.218003	4.710162	5.007124
H	-4.301845	3.712637	4.138707
H	-6.016770	7.687031	3.722453
H	-3.931862	8.674053	4.577963
H	-0.351452	5.903557	4.426974
H	-2.636078	8.987012	6.451860
H	-0.521195	10.004550	7.274968
H	1.678866	9.001427	6.689021
H	3.710419	5.179240	2.551886
H	1.529717	6.156338	3.159240
H	3.094569	7.234166	7.061855
H	5.276467	6.274449	6.459232
H	6.566179	1.809951	1.605750
H	10.750653	1.831595	1.857276
H	10.744302	3.807357	3.391796
H	7.144345	6.504349	5.252716
H	9.359482	5.571128	4.681645
H	5.170210	3.470477	2.852493
C	-7.772416	2.117901	1.244406
N	-8.894370	1.582611	0.749442
C	-10.105673	2.175005	1.012227
C	-10.201248	3.323843	1.778355
C	-7.845481	5.640846	3.575338
C	-9.034353	5.115919	3.097512
C	-9.031481	3.927845	2.313976
C	-7.764122	3.294210	2.039992
C	-6.561067	3.854745	2.546990
C	-6.573441	5.024206	3.315723
C	-3.038576	5.372423	4.693143
C	-4.219371	4.808882	4.201760
C	-5.325562	5.618081	3.847083
C	-5.193994	7.017337	4.014672
C	-4.008542	7.579577	4.497285
C	-2.899536	6.773045	4.847629
C	-0.387634	6.809037	5.051979
C	-1.642983	7.377008	5.360746
C	-1.672754	8.537290	6.169451
C	-0.483517	9.100996	6.648460
C	0.753838	8.526740	6.330381
C	0.820975	7.368073	5.521302
C	3.577431	5.601576	3.559632
C	2.341200	6.155099	3.902614
C	2.130900	6.766602	5.162346
C	3.224106	6.796752	6.061100
C	4.464706	6.252612	5.716155
C	4.671208	5.637587	4.457931
C	7.468995	2.282763	2.024886
N	8.649946	1.755627	1.681500
C	9.809523	2.304780	2.171720
C	9.793300	3.398156	3.020549
C	7.201815	5.617181	4.604679
C	8.447106	5.106107	4.279765
C	8.558872	3.984630	3.410503
C	7.345693	3.404477	2.886728
C	6.081979	3.948308	3.241520
C	5.982240	5.054297	4.093250
