153
Coordinates from ORCA-job cage_L-2_methylquinone_orca_opt
  C   -4.75608332450085      1.23027540658347      4.00958505990953
  C   -3.46730962163423      1.61364464283124      4.46835551703838
  C   -2.36211735868610      1.94846542381370      4.90377564148174
  C   -1.10955024073327      2.36867743847192      5.43998262878315
  C   -1.06260597937027      3.00799106965129      6.70966664144115
  C   0.16185595446220      3.42992277813276      7.24109807449676
  C   1.35212555092839      3.23253068682647      6.53076160568402
  C   1.33091944616705      2.59531290566022      5.25927188055400
  C   2.54810589699838      2.40286639809181      4.54161593351608
  C   3.62344006724683      2.25907038174961      3.95431721718917
  C   4.88735007394870      2.11231341675660      3.32189641644509
  C   6.09484982668995      2.53778633881574      3.93944140177407
  C   7.30846204486727      2.36728961035667      3.26769341153061
  C   7.31977268141293      1.77893250174235      1.99670259147638
  N   6.17105994111603      1.37131809529345      1.40317953301516
  C   4.98824587124459      1.52791246593429      2.03410097224749
  C   0.09430093943803      2.16361456371749      4.72449295714098
  C   -5.92749484301886      1.41349550604951      4.79434739627094
  C   -7.16626578704092      1.01675772767775      4.28443734081196
  C   -7.23975914420198      0.44344849415640      3.00796082644233
  N   -6.12646052307952      0.26746710235399      2.25563485671523
  C   -4.92014684128694      0.64438155664924      2.72933580985354
  H   -1.99479476581854      3.16844675711921      7.26984093713934
  H   0.18891954631288      3.92110800319206      8.22465776320911
  H   2.31066823173499      3.56905919248758      6.95057706232621
  H   6.06587187994680      2.99536656732145      4.93868786084461
  H   8.25639287645366      2.68829982850651      3.72285399751991
  H   8.25680976494705      1.62826806599499      1.44022464062014
  H   4.09198786456375      1.17785287669823      1.49933426143274
  H   0.06953346979236      1.66264962299518      3.74713131459211
  H   -5.85012639733395      1.86430736719558      5.79419172221008
  H   -8.08718622285882      1.14781379998591      4.87090425774537
  H   -8.19752252109955      0.11812242635876      2.57588472783620
  H   -4.05573233157565      0.48066980417824      2.06801113147531
  C   -4.36375939419107     -4.15128761061746      1.93623962380104
  C   -3.02121592699372     -4.58688701617095      2.09084651764616
  C   -1.87341282281473     -5.01067474428055      2.24878123405973
  C   -0.56637352370478     -5.54283047271517      2.45060576138205
  C   -0.41075761234844     -6.84066458697331      3.01096309385408
  C   0.86828213465548     -7.37322520557325      3.21142929380687
  C   2.00756784400367     -6.63762354902271      2.86390806932607
  C   1.87690260350024     -5.33796042699654      2.30157517092341
  C   3.04157739671151     -4.59540172270591      1.94861405289519
  C   4.07185324570520     -3.98381321584540      1.65539765609961
  C   5.27896516597894     -3.30733075561050      1.33619179840717
  C   6.55749675517772     -3.86579183453024      1.60868689401774
  C   7.70773615435019     -3.14707473088205      1.27250838117071
  C   7.58702866798182     -1.88695120909155      0.67284066832971
  N   6.36974584219399     -1.35085827422099      0.40946876878055
  C   5.24632783604662     -2.02881633117717      0.72458101328606
  C   0.58451445717719     -4.79849017057736      2.09970329786126
  C   -5.46828784585159     -4.96051580467324      2.32060129298458
  C   -6.76863895177210     -4.48249377273717      2.14097460745632
  C   -6.96857209435564     -3.21324644218982      1.58276567472350
  N   -5.91973596432069     -2.43734595784994      1.21521145352768
  C   -4.65528565356683     -2.87934445472420      1.38282949426204
  H   -1.30235521229541     -7.42173110217216      3.28602517592488
  H   0.97893587108416     -8.37762975800536      3.64525803691578
  H   3.01002303674871     -7.05977364934674      3.02363816953311
  H   6.63165513875346     -4.85593739840941      2.08074272697748
  H   8.70845292039589     -3.55611976589707      1.47306448889614
  H   8.47059494593470     -1.29327245273364      0.39554853553746
  H   4.28857371919506     -1.54365924465544      0.48277490612174
  H   0.47474514932630     -3.79326411782182      1.67000610745816
  H   -5.29088733504952     -5.95517516235592      2.75435705918177
  H   -7.63891663047459     -5.08906876847573      2.43003955865120
  H   -7.97801465429638     -2.80622659534800      1.42248227890454
  H   -3.84530503071849     -2.20414213874498      1.06759988617901
  C   -4.90066608375925     -2.18763575165833     -3.39533990041842
  C   -3.63329322997148     -2.36894800140514     -4.00974456842087
  C   -2.55634058842316     -2.54509105031408     -4.58539528974188
  C   -1.33912003759214     -2.76254571038025     -5.29505972536688
  C   -1.36533871041780     -3.40786491898985     -6.56230244839737
  C   -0.17543990988881     -3.62538794627518     -7.26709276408802
  C   1.05204751490954     -3.21323700067174     -6.73458522010547
  C   1.10317243468065     -2.56610136226345     -5.46932704024573
  C   2.35708583261914     -2.14895141370628     -4.93429152102877
  C   3.45897933244643     -1.79807475245756     -4.50514223113961
  C   4.74374207269517     -1.39903824845842     -4.04984652527031
  C   5.91941642317938     -1.59635266258993     -4.82395875730113
  C   7.15343217820361     -1.17833332559228     -4.31875160079120
  C   7.21688357083463     -0.57081101551768     -3.05824342243347
  N   6.09817269369300     -0.38127012154342     -2.31619139349062
  C   4.89673714475659     -0.77822783975404     -2.78445729269941
  C   -0.09916562040235     -2.34480201536653     -4.75715261108907
  C   -6.11107733401623     -2.57628032467025     -4.03219882134897
  C   -7.32904735805514     -2.37509216296336     -3.37727582309990
  C   -7.34314516076764     -1.79358884855744     -2.10313251606869
  N   -6.19175265958522     -1.42221545417909     -1.49110069403831
  C   -5.00501863560499     -1.60690157709882     -2.10590817918557
  H   -2.32676984236906     -3.73443033311931     -6.98331210608865
  H   -0.20518511735003     -4.12350871175997     -8.24707089333813
  H   1.98412258172595     -3.38698462890972     -7.29096624143900
  H   5.84969532979409     -2.07392797431692     -5.81184780548049
  H   8.07800537113269     -1.31916443758784     -4.89711420414018
  H   8.17059822907128     -0.22901357131437     -2.63013654690961
  H   4.02637847579072     -0.59953765879407     -2.13468128617323
  H   -0.06999641722120     -1.84188604136926     -3.78083561757611
  H   -6.07952839319789     -3.03071437884154     -5.03277914026556
  H   -8.27880757897738     -2.66754184474663     -3.84767282757796
  H   -8.28346265597333     -1.61993779884164     -1.55920829223092
  H   -4.10620248094248     -1.28744476334690     -1.55659841015837
  C   -5.29439777274140      3.22216656603228     -1.42411950914200
  C   -4.08387733049180      3.88373424347974     -1.76549298428240
  C   -3.05033664846350      4.48594643722349     -2.07005810575913
  C   -1.88820332056968      5.22563190627293     -2.43916467010743
  C   -2.02740917332634      6.52475206162595     -3.00123244631069
  C   -0.89296078360851      7.26128240409708     -3.36215729542537
  C   0.38931215374684      6.73246077614706     -3.17219541103449
  C   0.55421596186685      5.43599171612295     -2.61113928432746
  C   1.86458055546161      4.90946861920232     -2.41254816436817
  C   3.01372664676651      4.49120089738080     -2.25032159970581
  C   4.35579243842786      4.05368954898543     -2.08845647360314
  C   5.46321447279814      4.84623116740809     -2.49611941450005
  C   6.76117245146531      4.36384418099140     -2.30755558095718
  C   6.95416377472086      3.10756772405361     -1.71911933596641
  N   5.90159535417919      2.34751894969062     -1.32851808786961
  C   4.64010646169369      2.79452199802787     -1.50271495960917
  C   -0.59206632127404      4.68855542400556     -2.25172971911889
  C   -6.57043678442331      3.78984566176476     -1.69008074657672
  C   -7.72375762324699      3.08554342456540     -1.33522042064411
  C   -7.60893596362865      1.82881281049171     -0.72617242823651
  N   -6.39464457960615      1.28405362955323     -0.46925238900160
  C   -5.26781089169147      1.95008941252872     -0.79937909011443
  H   -3.03210720659033      6.94542503810183     -3.15040855034996
  H   -1.00999329932556      8.26454448560246     -3.79701335747229
  H   1.27702480917350      7.31570735702408     -3.45517866714496
  H   5.29117654974395      5.83064140220300     -2.95470364162497
  H   7.63462064419688      4.95708288328175     -2.61413597693751
  H   7.96161518564675      2.69764819722876     -1.55377574433860
  H   3.82824446320098      2.13323341598923     -1.16436757398621
  H   -0.47328564663436      3.68252185256033     -1.82700870141527
  H   -6.64026344862426      4.77556591723951     -2.17201940453655
  H   -8.72260640480226      3.50213765126677     -1.52952113901436
  H   -8.49551625733930      1.24551371471776     -0.43658580376961
  H   -4.31346816042719      1.45969231107744     -0.55556918711695
  Pd  -6.19968857487876     -0.57832229592638      0.38272404354563
  Pd  6.17351669503654      0.50113835092447     -0.46100805859983
  O   -2.62403569480849     -0.04651515476387      0.13450005868161
  C   -1.38845522862279      0.01933358971715      0.05222764562563
  C   -0.64685290143980      1.25609859354946      0.47904971237255
  C   -1.44619503251090      2.41281311758318      0.98162079969546
  C   0.71549503899673      1.26211296759703      0.37919438957813
  C   1.48266016728322      0.11444536064029     -0.13598411639503
  C   0.73657832166154     -1.09789943712889     -0.56034280378705
  C   -0.61515749839434     -1.13549665576168     -0.47111199316058
  O   2.72331607312852      0.15502161444892     -0.21930439159977
  H   -2.10398202478853      2.80870574239081      0.17716014100556
  H   -0.79692225683236      3.23607737018670      1.33220595833456
  H   -2.11257570107822      2.10892134707966      1.81542653780364
  H   1.30350418984924      2.14297396467016      0.68352498468342
  H   1.32805031913044     -1.94436191000731     -0.94419930692725
  H   -1.19959079024943     -2.01725757084861     -0.77918557691572
