158 

C	6.183302	0.710012	4.55646
C	6.180748	0.609112	5.977775
C	4.98884	0.642885	6.680301
C	3.722191	0.783659	6.008272
C	2.512433	0.797459	6.763411
C	1.484963	0.810912	7.435327
C	0.27937	0.835007	8.267439
C	-0.985576	0.714396	7.538054
C	-2.061222	0.624498	6.953077
C	-3.320818	0.543231	6.289197
C	-3.411787	0.11888	4.956671
C	-4.670976	0.068437	4.301513
C	-5.87328	0.445331	5.005531
C	-5.764299	0.858752	6.364744
C	-4.528289	0.907536	6.985787
C	-7.100221	0.385475	4.28891
C	-7.118714	-0.013271	2.962772
N	-5.968082	-0.373861	2.302916
C	-4.795654	-0.340816	2.947891
C	3.707682	0.898336	4.611619
C	4.920423	0.858409	3.873253
C	4.939554	0.952724	2.456608
N	6.067768	0.891965	1.739377
C	7.275476	0.74946	2.379943
C	7.360073	0.664193	3.75944
H	7.135602	0.502162	6.513973
H	4.994031	0.556753	7.777023
H	0.34221	0.020898	9.028883
H	0.268352	1.777079	8.865619
H	-2.500463	-0.173709	4.41478
H	-6.671762	1.144022	6.917537
H	-4.451993	1.232561	8.033396
H	-8.044565	0.662498	4.780576
H	-8.05286	-0.052587	2.384232
H	-3.902047	-0.652914	2.383872
H	2.748924	1.014174	4.084928
H	3.996685	1.082678	1.901497
H	8.170168	0.701358	1.742595
H	8.347098	0.55135	4.232432
C	5.141648	5.748954	-0.072604
C	4.831231	7.13716	0.015
C	3.53123	7.577192	-0.165639
C	2.457522	6.6592	-0.449548
C	1.12801	7.147543	-0.616391
C	-0.006818	7.59326	-0.760624
C	-1.34594	8.159996	-0.940245
C	-2.443202	7.189432	-0.919348
C	-3.382021	6.398352	-0.914915
C	-4.48353	5.492791	-0.93226
C	-4.335804	4.164284	-0.511203
C	-5.436867	3.268292	-0.556302
C	-6.724265	3.719683	-1.02782
C	-6.860089	5.077322	-1.438918
C	-5.774648	5.935158	-1.394397
C	-7.782387	2.770187	-1.058798
C	-7.563107	1.462842	-0.657463
N	-6.333191	1.043721	-0.209528
C	-5.315876	1.911895	-0.155178
C	2.747571	5.291764	-0.551502
C	4.074439	4.821176	-0.362261
C	4.399277	3.441338	-0.442422
N	5.637858	2.972886	-0.247305
C	6.661057	3.84773	0.029671
C	6.445617	5.213179	0.115144
H	5.633901	7.858757	0.229852
H	3.298264	8.649594	-0.090433
H	-1.526116	8.932572	-0.154945
H	-1.375986	8.725582	-1.901848
H	-3.359797	3.812777	-0.146207
H	-7.835565	5.439398	-1.796799
H	-5.885688	6.979813	-1.719252
H	-8.782597	3.0653	-1.409121
H	-8.361803	0.707848	-0.686748
H	-4.352618	1.534352	0.223604
H	1.940685	4.578435	-0.77523
H	3.615262	2.703658	-0.677628
H	7.65725	3.409363	0.18433
H	7.293046	5.878971	0.336367
C	5.602155	1.09859	-5.177565
C	5.427557	1.139593	-6.591182
C	4.243474	0.708153	-7.163849
C	3.158243	0.204786	-6.361041
C	1.946437	-0.217813	-6.98315
C	0.914352	-0.581667	-7.539748
C	-0.297398	-1.020401	-8.236763
C	-1.468061	-1.23353	-7.381889
C	-2.463871	-1.429282	-6.690977
C	-3.62638	-1.680739	-5.904122
C	-3.692437	-1.284315	-4.56163
C	-4.849777	-1.559736	-3.785398
C	-5.974626	-2.246072	-4.374831
C	-5.895623	-2.630179	-5.744765
C	-4.75798	-2.357882	-6.484816
C	-7.097702	-2.503466	-3.540994
C	-7.089532	-2.109208	-2.213389
N	-6.014881	-1.452013	-1.663452
C	-4.943639	-1.183461	-2.419682
C	3.318205	0.145535	-4.970036
C	4.524207	0.588783	-4.364466
C	4.713648	0.554671	-2.957812
N	5.832048	0.987643	-2.363639
C	6.862866	1.479202	-3.128327
C	6.777984	1.538481	-4.509386
H	6.24262	1.518866	-7.225826
H	4.113994	0.747885	-8.255556
H	-0.554029	-0.277887	-9.029479
H	-0.076334	-1.960881	-8.795386
H	-2.839584	-0.759393	-4.106558
H	-6.747369	-3.148408	-6.210869
H	-4.7029	-2.662171	-7.540021
H	-7.980316	-3.023311	-3.942633
H	-7.93973	-2.310449	-1.545961
H	-4.111475	-0.643446	-1.94009
H	2.500922	-0.241917	-4.344015
H	3.919644	0.156651	-2.305844
H	7.755912	1.825957	-2.58918
H	7.627917	1.936154	-5.084036
C	6.632343	-3.88523	-0.519039
C	6.75919	-5.303165	-0.581651
C	5.67874	-6.117039	-0.288112
C	4.401087	-5.566888	0.087492
C	3.305076	-6.435023	0.368409
C	2.376692	-7.200908	0.610911
C	1.293619	-8.142401	0.906226
C	-0.040269	-7.546298	1.015816
C	-1.169255	-7.07571	1.121656
C	-2.485456	-6.546473	1.267291
C	-2.786809	-5.234582	0.876905
C	-4.098052	-4.715898	1.047137
C	-5.137822	-5.538248	1.618651
C	-4.817372	-6.874479	1.9965
C	-3.532902	-7.361964	1.827758
C	-6.425664	-4.955551	1.774135
C	-6.651659	-3.643569	1.392912
N	-5.655881	-2.870675	0.845108
C	-4.433385	-3.387586	0.673909
C	4.261902	-4.174566	0.164365
C	5.358762	-3.323638	-0.136768
C	5.248248	-1.909468	-0.079154
N	6.262362	-1.088055	-0.375661
C	7.478089	-1.612239	-0.745242
C	7.686984	-2.97938	-0.818664
H	7.72462	-5.747906	-0.866332
H	5.783614	-7.210816	-0.342388
H	1.275064	-8.939174	0.12443
H	1.530706	-8.685169	1.852134
H	-2.001524	-4.601686	0.438155
H	-5.599831	-7.517678	2.426663
H	-3.29268	-8.392949	2.125
H	-7.251543	-5.540934	2.204709
H	-7.634068	-3.16643	1.517257
H	-3.67076	-2.735956	0.217634
H	3.295272	-3.738653	0.456663
H	4.296343	-1.444503	0.223678
H	8.2737	-0.892373	-0.983782
H	8.675335	-3.35814	-1.118728
Pd	5.977667	0.947002	-0.313441
Pd	-6.020953	-0.916958	0.321552
