310
cage_7-isoquinoline_1-4-napythyl_1-3-phenyl-2-methyl.xyz
Pd	8.831488	0.099997	0.813010
Pd	-9.003769	-0.131983	-0.956813
H	-7.131090	-0.509331	1.310706
H	-11.276255	0.052518	1.027273
H	-11.561761	-0.098005	3.508584
H	-8.375020	-0.769663	7.144247
H	-10.445950	-0.424824	5.827519
H	-5.984455	-0.747360	3.524368
H	-3.178788	-3.257252	6.248214
H	-5.249518	-2.710110	4.984355
H	-7.034444	1.256810	7.176875
H	-6.371309	2.572715	9.156520
H	-4.341386	1.929386	10.492756
H	-2.963920	-0.026908	9.798749
H	0.200212	-0.250191	6.705789
H	-0.912193	-1.309288	5.794018
H	-1.572244	0.021182	6.770710
H	-3.286987	-3.146591	9.940361
H	-1.241186	-3.907361	11.173536
H	1.025453	-3.284391	10.317174
H	3.641446	-2.672906	5.464683
H	1.336089	-3.000279	6.337296
H	1.191802	-0.551769	10.483641
H	2.800940	0.857315	11.751049
H	5.115073	1.247929	10.847553
H	5.807682	0.226122	8.707597
H	6.553470	-0.207450	2.694735
H	10.684719	-0.856099	2.989700
H	10.496818	-1.579560	5.377643
H	6.675461	-2.068087	8.369997
H	8.964138	-2.033591	7.413461
H	5.011866	-0.640017	4.627723
C	-8.094213	-0.412321	1.837760
N	-9.186184	-0.222952	1.087219
C	-10.415013	-0.110237	1.690985
C	-10.558914	-0.191483	3.065961
C	-8.310015	-0.667506	6.050478
C	-9.472663	-0.484010	5.317022
C	-9.421553	-0.387734	3.897541
C	-8.135849	-0.499949	3.252957
C	-6.960182	-0.684667	4.030832
C	-7.019949	-0.765596	5.425117
C	-3.789133	-2.395744	6.560015
C	-4.959340	-2.075729	5.836526
C	-5.786775	-1.014290	6.214414
C	-5.417900	-0.210836	7.354983
C	-6.156232	0.942061	7.759505
C	-5.779206	1.692305	8.864720
C	-4.630285	1.334285	9.613570
C	-3.866328	0.242309	9.230373
C	-4.223919	-0.553449	8.100503
C	-3.409201	-1.663861	7.683740
C	-0.782144	-0.755561	6.748383
C	-0.889494	-1.667047	7.951419
C	-2.170803	-2.057332	8.429630
C	-2.286935	-2.855737	9.584494
C	-1.143399	-3.285570	10.271213
C	0.123625	-2.928028	9.796602
C	0.266453	-2.129164	8.640024
C	3.350370	-2.185836	6.408144
C	2.043879	-2.379064	6.906938
C	1.642417	-1.838721	8.129396
C	2.581240	-1.039768	8.877122
C	2.212228	-0.406351	10.102412
C	3.107528	0.386063	10.805695
C	4.413363	0.601985	10.298417
C	4.804388	0.013609	9.103777
C	3.923362	-0.835682	8.368295
C	4.302600	-1.450552	7.119536
C	7.401127	-0.526332	3.322567
N	8.617362	-0.503880	2.763982
C	9.711905	-0.883744	3.501474
C	9.594620	-1.284955	4.821580
C	6.825722	-1.729836	7.334015
C	8.105833	-1.718462	6.801250
C	8.319917	-1.319643	5.451526
C	7.175382	-0.931535	4.663374
C	5.873973	-0.953966	5.235920
C	5.675200	-1.350352	6.561397
H	-7.031243	1.954808	-0.215207
H	-11.012689	2.054268	-1.528187
H	-11.069674	4.553377	-1.469847
H	-7.698421	7.886915	-0.295074
H	-9.799615	6.764548	-0.988280
H	-5.730208	4.052571	0.193872
H	-3.143541	6.564594	3.106333
H	-5.222838	5.516335	2.228718
H	-6.020581	7.716334	-2.044823
H	-4.912961	9.555670	-3.264639
H	-2.888135	10.688547	-2.297946
H	-1.962390	9.926305	-0.110488
H	0.731789	6.707458	0.406153
H	-0.565646	5.858294	1.291978
H	-0.985696	6.938238	-0.056010
H	-2.786739	10.098993	3.080885
H	-0.746189	11.120633	4.120420
H	1.501728	10.112804	3.687214
H	3.772235	5.082021	3.085184
H	1.522323	6.128856	3.207023
H	1.991112	10.398062	1.018996
H	3.847157	11.591571	-0.123106
H	6.111346	10.513431	-0.311873
H	6.508595	8.270529	0.648218
H	6.714581	2.181380	0.874691
H	10.746178	2.090456	2.023734
H	10.674661	4.465082	2.807723
H	7.078982	7.757190	2.985552
H	9.270893	6.611155	3.166569
H	5.298632	4.226123	1.203531
C	-7.903260	2.567685	-0.494712
N	-9.011672	1.919863	-0.873676
C	-10.132343	2.636040	-1.219822
C	-10.149734	4.020382	-1.186943
C	-7.730214	6.788969	-0.362536
C	-8.910288	6.165445	-0.740598
C	-8.988588	4.744968	-0.798178
C	-7.817809	3.982770	-0.438105
C	-6.621339	4.648971	-0.055931
C	-6.550483	6.044764	-0.017506
C	-3.553633	6.904819	2.143870
C	-4.727586	6.301978	1.637361
C	-5.304428	6.715939	0.433268
C	-4.673312	7.774373	-0.319115
C	-5.148204	8.209936	-1.593532
C	-4.521059	9.235992	-2.287855
C	-3.373836	9.869783	-1.746558
C	-2.860921	9.449752	-0.528366
C	-3.478451	8.397680	0.213201
C	-2.920710	7.940924	1.459355
C	-0.294539	6.817993	0.801481
C	-0.403319	7.988228	1.754243
C	-1.678257	8.553815	2.033189
C	-1.791831	9.673385	2.880452
C	-0.651831	10.243123	3.463482
C	0.606198	9.683803	3.212510
C	0.745661	8.556826	2.371502
C	3.615498	6.070181	2.625969
C	2.339129	6.667430	2.703664
C	2.100829	7.947107	2.200652
C	3.181887	8.652422	1.557981
C	2.987561	9.936696	0.964766
C	4.021193	10.600213	0.320183
C	5.298645	9.994536	0.218175
C	5.522466	8.741491	0.771288
C	4.493951	8.041802	1.471500
C	4.700313	6.734972	2.046773
C	7.567310	2.721922	1.316641
N	8.725057	2.058189	1.420004
C	9.823954	2.685310	1.954114
C	9.770576	3.999203	2.388426
C	7.183301	6.725539	2.617924
C	8.408498	6.085907	2.729059
C	8.557918	4.737021	2.298795
C	7.407381	4.064834	1.745494
C	6.164274	4.746631	1.641236
C	6.026674	6.068645	2.074127
H	-6.751430	0.432717	-2.798639
H	-10.788480	-0.547317	-3.363302
H	-10.548275	-0.511655	-5.852652
H	-6.723469	0.327437	-8.770019
H	-8.992780	-0.176319	-7.898847
H	-5.185714	0.725547	-4.734221
H	-2.133400	3.426001	-6.977014
H	-4.379312	2.717841	-6.169332
H	-5.204075	-1.552106	-8.358827
H	-3.967357	-2.903484	-10.016701
H	-1.754097	-2.113592	-10.907679
H	-0.778643	0.031734	-10.092536
H	1.545356	0.398230	-6.665692
H	0.277899	1.419237	-5.933430
H	-0.184775	0.105374	-7.037954
H	-1.369272	3.320489	-10.401542
H	0.840963	4.212741	-11.181486
H	2.925345	3.624984	-9.930547
H	4.581004	2.867870	-4.684774
H	2.477818	3.164946	-5.976666
H	3.239539	0.920342	-10.170949
H	5.119978	-0.376456	-11.155709
H	7.228729	-0.736523	-9.833914
H	7.449318	0.199522	-7.556920
H	6.971501	0.358852	-1.496318
H	11.053317	1.134996	-0.933343
H	11.318125	1.954878	-3.282755
H	8.146437	2.492285	-6.950689
H	10.202061	2.469069	-5.561205
H	5.831880	0.829582	-3.680860
C	-7.564597	0.218114	-3.510530
N	-8.768611	-0.062759	-2.997364
C	-9.823525	-0.320644	-3.838654
C	-9.676519	-0.301167	-5.215434
C	-6.890747	0.282445	-7.683174
C	-8.162346	0.009386	-7.200888
C	-8.409762	-0.020227	-5.799019
C	-7.310487	0.253387	-4.905772
C	-6.018430	0.534099	-5.428764
C	-5.783826	0.548392	-6.806501
C	-2.565240	2.482925	-7.343578
C	-3.834599	2.072539	-6.876035
C	-4.438091	0.897178	-7.330739
C	-3.738354	0.073089	-8.286873
C	-4.246897	-1.178557	-8.749379
C	-3.549357	-1.945951	-9.672580
C	-2.297143	-1.503919	-10.169939
C	-1.755012	-0.309366	-9.719503
C	-2.442436	0.505134	-8.769932
C	-1.860305	1.726421	-8.277703
C	0.576101	0.891706	-6.865229
C	0.662527	1.836607	-8.042646
C	-0.517924	2.202009	-8.747014
C	-0.444987	3.051926	-9.868036
C	0.789544	3.552099	-10.303086
C	1.956203	3.215577	-9.607074
C	1.908350	2.370213	-8.476381
C	4.497869	2.416498	-5.685278
C	3.306963	2.594920	-6.422161
C	3.171539	2.101882	-7.720564
C	4.269077	1.370638	-8.303415
C	4.171427	0.787621	-9.603526
C	5.217599	0.058932	-10.150442
C	6.407802	-0.140976	-9.406732
C	6.534753	0.399126	-8.134504
C	5.493597	1.182271	-7.550551
C	5.597624	1.744124	-6.225931
C	7.915499	0.727596	-1.928920
N	8.995300	0.718115	-1.137917
C	10.201293	1.157426	-1.628034
C	10.334543	1.612060	-2.929314
C	8.102198	2.104530	-5.922226
C	9.251667	2.100837	-5.146338
C	9.209678	1.641218	-3.799362
C	7.946816	1.183981	-3.272114
C	6.784596	1.196974	-4.091729
C	6.836582	1.654190	-5.411566
H	-6.864290	-2.184503	-1.140137
H	-11.048971	-2.350755	-0.906493
H	-11.048169	-4.850439	-0.986670
H	-7.438669	-8.124389	-1.282670
H	-9.664566	-7.037770	-1.147539
H	-5.468210	-4.261299	-1.198281
H	-2.173840	-6.698333	-3.359783
H	-4.408150	-5.662101	-3.022912
H	-6.284518	-7.974094	0.832885
H	-5.536104	-9.858326	2.239925
H	-3.335069	-10.986795	1.792938
H	-1.873910	-10.175290	-0.054507
H	0.962314	-6.697538	-0.135476
H	-0.153165	-5.957522	-1.315932
H	-0.808798	-6.952558	0.002033
H	-1.902176	-10.420927	-3.125133
H	0.323166	-11.433254	-3.683240
H	2.422436	-10.298145	-2.937532
H	4.412364	-5.142201	-2.329694
H	2.254176	-6.287718	-2.791099
H	2.408230	-10.362442	-0.214750
H	4.049309	-11.395383	1.337813
H	6.213889	-10.222517	1.847487
H	6.726749	-8.042386	0.803906
H	6.808754	-2.029300	0.358159
H	10.982382	-1.850631	0.000794
H	11.116481	-4.239030	-0.732101
H	7.700801	-7.645706	-1.467675
H	9.859408	-6.433795	-1.285783
H	5.529794	-4.120444	-0.176207
C	-7.769556	-2.811970	-1.098205
N	-8.948604	-2.183408	-1.022412
C	-10.109471	-2.917740	-0.978665
C	-10.095016	-4.301769	-1.019375
C	-7.504003	-7.028160	-1.213741
C	-8.750707	-6.424779	-1.147408
C	-8.861921	-5.006406	-1.097864
C	-7.649323	-4.225232	-1.134119
C	-6.384717	-4.871536	-1.195849
C	-6.285829	-6.265614	-1.231147
C	-2.821418	-7.066181	-2.549131
C	-4.085390	-6.469494	-2.347087
C	-4.958930	-6.920884	-1.353278
C	-4.543174	-8.005283	-0.496014
C	-5.329579	-8.468218	0.601888
C	-4.905898	-9.518802	1.404061
C	-3.660822	-10.149647	1.157467
C	-2.850024	-9.702208	0.125262
C	-3.253153	-8.625999	-0.721747
C	-2.391845	-8.136407	-1.765933
C	0.034730	-6.870738	-0.711971
C	0.134949	-8.108889	-1.575327
C	-1.050573	-8.748097	-2.033410
C	-0.973778	-9.938872	-2.783183
C	0.269418	-10.503776	-3.097402
C	1.443157	-9.871123	-2.672910
C	1.393745	-8.676446	-1.920136
C	4.197198	-6.101760	-1.834886
C	2.975152	-6.756027	-2.103715
C	2.677380	-8.002588	-1.552004
C	3.635445	-8.616954	-0.666168
C	3.365719	-9.860047	-0.017517
C	4.278430	-10.433860	0.855336
C	5.500243	-9.774398	1.139617
C	5.791824	-8.557558	0.539793
C	4.892430	-7.950520	-0.388126
C	5.167590	-6.679937	-1.012547
C	7.742553	-2.553981	0.100021
N	8.883186	-1.861550	0.207966
C	10.077941	-2.468353	-0.094509
C	10.138830	-3.790499	-0.501760
C	7.710181	-6.600075	-1.126106
C	8.917633	-5.924740	-1.031635
C	8.949318	-4.561051	-0.623492
C	7.698828	-3.909204	-0.317474
C	6.474911	-4.625872	-0.427510
C	6.456404	-5.964346	-0.828081
