158
Coordinates from ORCA-job cage_L-1_anthracene-9,10-dione_orca_opt
  C   -4.53000697709390     -3.97172474813801      1.81706473085873
  C   -3.21530357887309     -4.41311827059936      2.12863205815623
  C   -2.08387624537080     -4.81570917849830      2.40407994991065
  C   -0.80915975243969     -5.36123778470266      2.77764305170716
  C   -0.77426549460801     -6.58630639639877      3.49621050198517
  C   0.46857088857167     -7.10950178865228      3.86822598109967
  C   1.62654408190949     -6.40517916841313      3.52243548294141
  C   1.49310120975614     -5.18771409974000      2.80237750380185
  C   2.67985879443801     -4.45724838630234      2.45541339934487
  C   3.74495777749175     -3.88941942471903      2.20763605435724
  C   4.99065003374509     -3.25891750542107      1.94055230984681
  C   6.22848452481171     -3.85119541954473      2.30964502118555
  C   7.42330788760148     -3.18628570758810      2.02095166506465
  C   7.38399839226474     -1.94742493013743      1.36890330653253
  N   6.20540180818054     -1.37919775393608      1.01444941483760
  C   5.03912825402750     -2.00197341447725      1.28723361253714
  N   0.30046072158447     -4.67202224534405      2.43049554341724
  C   -5.67987482372648     -4.74841003713887      2.12314132466983
  C   -6.94685726892573     -4.26359924398013      1.78705855974608
  C   -7.06475830393078     -3.02123614332289      1.15140585832063
  N   -5.97044738248911     -2.27634286224601      0.85914905345116
  C   -4.73753753677052     -2.72361992811371      1.17823712394834
  H   -1.70914804159248     -7.10406869641635      3.75304029521181
  H   0.53411503742556     -8.05695060267335      4.42324799891920
  H   2.62259347598690     -6.77730599414698      3.80077340215652
  H   6.23721653983731     -4.82580796066491      2.81851871509225
  H   8.39442789547132     -3.62237251755953      2.29556339209570
  H   8.30339943541505     -1.39525442101212      1.12389732081332
  H   4.11699296445613     -1.48813623442455      0.97210783967482
  H   -5.56485204700541     -5.72269048513292      2.61970934420222
  H   -7.85294948773740     -4.84464614933050      2.01118109866788
  H   -8.04477759586398     -2.60913370615161      0.86901111007254
  H   -3.88838438917466     -2.07348154042669      0.91401765475496
  C   -4.58353658221741     -2.13445440323925     -3.71140542847930
  C   -3.27758285648832     -2.29880436752199     -4.24819132740265
  C   -2.15732488534944     -2.44779565438762     -4.73922434553877
  C   -0.89853352957403     -2.65353980056070     -5.39918242728300
  C   -0.89645333070650     -3.20530889626982     -6.70848417885249
  C   0.33022299582061     -3.39697983945233     -7.35321206327952
  C   1.50521527993371     -3.03552127556408     -6.68568590956219
  C   1.40457167645590     -2.49148190871349     -5.37698652855616
  C   2.60863520068613     -2.11342480115278     -4.69170556471091
  C   3.68622702821401     -1.81262145955195     -4.17552814948582
  C   4.94165278316339     -1.47431516033205     -3.60134443357793
  C   6.17194020588501     -1.76616067983769     -4.24952512065368
  C   7.37519770989626     -1.41219906861429     -3.63301401458934
  C   7.35160565968596     -0.77669955709556     -2.38526835259859
  N   6.17989665600549     -0.49438006588144     -1.76423848970395
  C   5.00608518532657     -0.82482584244889     -2.34299224435692
  N   0.22787587267225     -2.30472489508931     -4.73878502307397
  C   -5.74428621910530     -2.56645240538463     -4.40787587239882
  C   -7.00308356546126     -2.37868584452237     -3.83025876524021
  C   -7.10228026751246     -1.76881273669955     -2.57350962410448
  N   -5.99753786604752     -1.35393952281129     -1.90619550304445
  C   -4.77214225185067     -1.52364535431115     -2.44627549706587
  H   -1.84360337216145     -3.47455871416611     -7.19679528608207
  H   0.36970444211948     -3.81945636341873     -8.36786917743211
  H   2.49004841387215     -3.16688079222499     -7.15604106091264
  H   6.16852927675372     -2.26529031849555     -5.22915951876632
  H   8.34124164750720     -1.62785864378898     -4.11156704495975
  H   8.27840127910960     -0.48388996137196     -1.87000669641158
  H   4.08862546308163     -0.56750032779803     -1.79024293868730
  H   -5.64448742594550     -3.04141430851691     -5.39442640947150
  H   -7.91727290724530     -2.70452729107438     -4.34673348847407
  H   -8.07598163580439     -1.60408992337985     -2.08847582063257
  H   -3.91405603771133     -1.16508315266390     -1.85560913916473
  C   -4.99311681954467      3.27085222184643     -1.90786458795470
  C   -3.74748172370988      3.89682675616796     -2.18550462644220
  C   -2.68219550424928      4.46207565895823     -2.43825894243074
  C   -1.49532306013493      5.19042538112023     -2.78915384961376
  C   -1.62861122474511      6.40845902532898     -3.50823950830464
  C   -0.47019897715890      7.10953316685842     -3.85914530394899
  C   0.77280141900373      6.58311515411909     -3.49223981758133
  C   0.80749740124948      5.35782207631692     -2.77405424959010
  C   2.08219228416524      4.80847813374011     -2.40615553537935
  C   3.21351532644221      4.40149327765925     -2.13684025047860
  C   4.52898800264342      3.95427963464080     -1.83710441282327
  C   5.67966466431914      4.72085228788693     -2.16498551731201
  C   6.94788122007197      4.23110750025670     -1.84099630670345
  C   7.06615328522343      2.99398942530522     -1.19523987062722
  N   5.97101682642711      2.25927885421890     -0.88124278351325
  C   4.73681139617758      2.71104578051587     -1.18899774236404
  N   -0.30247701438112      4.67130379955540     -2.42273271011346
  C   -6.23248049960210      3.87714800962206     -2.24801550099949
  C   -7.42720654346407      3.21645388610453     -1.94945266111897
  C   -7.38615940791569      1.96799033605417     -1.31608301946733
  N   -6.20605155523115      1.38618888879247     -0.98956224268765
  C   -5.03986333039361      2.00449924554878     -1.27281121470630
  H   -2.62478442411874      6.78268679777789     -3.78331432973919
  H   -0.53557850272273      8.05762305139920     -4.41307989449949
  H   1.70797927856794      7.09800783636662     -3.75371106950193
  H   5.56416784013266      5.69141133795571     -2.66868318010380
  H   7.85462239658302      4.80398294980735     -2.08271432578974
  H   8.04714925481655      2.57803307385805     -0.92202198688388
  H   3.88731677051428      2.06864650150496     -0.90750759221788
  H   -6.24237785447684      4.85920734554715     -2.74227019985261
  H   -8.39952333646221      3.66319023143787     -2.20186739137006
  H   -8.30536435977702      1.41908588750249     -1.06319295243170
  H   -4.11620991271979      1.47965743938921     -0.98095163738035
  C   -4.93648858514748      1.45219261947441      3.60621569686517
  C   -3.68119946309166      1.80417404376021      4.17245668813092
  C   -2.60468647643727      2.11396491229890      4.68556247895874
  C   -1.40183781327882      2.50089376221340      5.36801276784813
  C   -1.50381433274497      3.05047444424395      6.67429391253441
  C   -0.32996245621974      3.42096359197606      7.33885556883533
  C   0.89705774402280      3.23205995591390      6.69393441985975
  C   0.90052724254283      2.67407112358083      5.38730997786792
  C   2.15947965826398      2.47051103020275      4.72700261297000
  C   3.27954396996872      2.32525868111658      4.23442311306616
  C   4.58426296278417      2.16899252948726      3.69227511224425
  C   5.74339835340490      2.63005099813727      4.37257770088153
  C   7.00083164825367      2.44891162960575      3.78991507023564
  C   7.10014616743339      1.81731611221510      2.54392416356391
  N   5.99697930505765      1.37442493050572      1.89218110786335
  C   4.77307227186972      1.53667037371412      2.43781022072488
  N   -0.22484344929293      2.31703843106025      4.72953003071891
  C   -6.16481679296062      1.72176996016924      4.26777454081808
  C   -7.36857617463996      1.35373598128546      3.66069361157434
  C   -7.34755977191047      0.72694705779481      2.40847412363292
  N   -6.17790513044154      0.46723801959896      1.77406247969211
  C   -5.00336855287316      0.81073833004558      2.34394238707498
  H   -2.48882862945410      3.17968147011629      7.14486969382430
  H   -0.37049956310674      3.84759859077003      8.35173001460795
  H   1.84333343210261      3.50836555475403      7.17999242834757
  H   5.64343933418005      3.12199451968662      5.35077709181467
  H   7.91383433928837      2.79673165598289      4.29400097872372
  H   8.07276122003714      1.65800138668564      2.05486918405333
  H   3.91589146510859      1.15444358820511      1.86080208341383
  H   -6.15929340483818      2.21465129411186      5.25054505575442
  H   -8.33300988830219      1.55148706725671      4.15015021469059
  H   -8.27469949266695      0.42284820367104      1.90044030757833
  H   -4.08808155550665      0.57120810150672      1.77951247390198
  Pd  -6.12786107797894     -0.44790443299690     -0.06574767366992
  Pd  6.12812353979398      0.44196107899083      0.06506514073323
  O   -2.71959582452427     -0.20751506371777     -0.02702692751657
  C   -1.47394156658777     -0.11498274727217     -0.01323181378598
  C   -0.61638622612251     -1.26511815106050     -0.40207940314142
  C   0.80224029401591     -1.15911294437963     -0.39308597653357
  C   1.57696908448477     -2.27204476247037     -0.77351560792800
  C   0.97003340325070     -3.47489005474991     -1.15587315910764
  C   -0.42956538707260     -3.57978755211653     -1.16375878749090
  C   -1.21262143675516     -2.48106430774913     -0.78892155898436
  C   -0.80267764849247      1.14835540485703      0.39049308052022
  C   0.61617591275192      1.25386129414809      0.40108175877528
  C   1.21237870715239      2.46887278930349      0.79037459538224
  C   0.42951999253221      3.56785202752631      1.16511692690362
  C   -0.97004727743002      3.46389698501894      1.15459650483911
  C   -1.57706838752429      2.26164495571090      0.77032412530993
  C   1.47366862798674      0.10401788301744      0.01146910643615
  O   2.71935931676547      0.19512415117927      0.02499227972835
  H   2.67186285819203     -2.18620932786722     -0.76730277951305
  H   1.58885469640549     -4.33451547233147     -1.45270823528312
  H   -0.91008110697133     -4.52332900231280     -1.46221524067322
  H   -2.30848026103706     -2.55843938640469     -0.79388849000355
  H   2.30819260742802      2.54615499559313      0.79794625539099
  H   0.90998644171110      4.51054630333880      1.46625204149703
  H   -1.58880557006721      4.32385848751133      1.45053907515519
  H   -2.67203873590928      2.17758853388873      0.76237812552015
