222
cage_7-isoquinoline_1-4-phenyl_methylene.xyz
Pd	-7.281186	-0.353877	-0.150448
Pd	7.310109	0.368074	0.121640
H	5.518965	-1.298865	-1.576358
H	9.196554	0.614214	-2.211504
H	9.269182	-0.111592	-4.605370
H	6.140165	-2.636356	-7.363734
H	8.088103	-1.337429	-6.559101
H	4.319930	-2.480147	-3.424606
H	1.687499	-5.849544	-4.993901
H	3.649700	-4.604029	-4.150819
H	3.898533	-2.463373	-7.928912
H	1.940449	-3.717505	-8.761647
H	0.447151	-5.653354	-8.542145
H	0.469752	-6.659193	-7.073277
H	-3.326589	-2.825487	-8.067557
H	-1.222774	-3.876413	-8.822427
H	-0.902481	-5.979831	-5.043940
H	-3.008955	-4.936755	-4.278471
H	-5.284386	-1.837710	-1.778792
H	-9.109819	-0.302066	-2.547126
H	-9.026093	-1.030178	-4.940373
H	-5.564752	-3.221145	-7.583011
H	-7.659323	-2.125954	-6.848830
H	-3.907945	-2.893376	-3.582491
C	6.324435	-1.046489	-2.284756
N	7.343350	-0.313706	-1.816061
C	8.388057	0.011593	-2.649106
C	8.413924	-0.392926	-3.972992
C	6.167053	-2.297980	-6.317404
C	7.264058	-1.578155	-5.870390
C	7.338515	-1.150183	-4.514566
C	6.252696	-1.496583	-3.629128
C	5.146053	-2.246583	-4.113122
C	5.077042	-2.651417	-5.450090
C	2.153840	-5.084315	-5.633757
C	3.259199	-4.374675	-5.154074
C	3.915094	-3.416187	-5.962872
C	3.421405	-3.206583	-7.271508
C	2.303707	-3.908622	-7.739933
C	1.647082	-4.859378	-6.931769
C	0.423899	-5.611450	-7.435237
C	-2.802900	-3.518168	-7.390721
C	-1.603712	-4.104487	-7.815047
C	-0.886860	-4.986576	-6.980735
C	-1.417758	-5.263587	-5.702699
C	-2.605572	-4.668296	-5.266701
C	-3.322383	-3.778149	-6.101328
C	-6.084766	-1.665901	-2.516413
N	-7.187651	-1.038855	-2.085519
C	-8.230508	-0.820304	-2.954973
C	-8.169189	-1.224206	-4.277971
C	-5.661175	-2.889427	-6.538562
C	-6.839734	-2.283907	-6.131436
C	-7.004391	-1.868202	-4.779874
C	-5.921175	-2.105365	-3.856073
C	-4.728919	-2.740397	-4.299612
C	-4.572614	-3.133633	-5.632679
H	5.409295	1.933207	-1.545251
H	9.016226	2.844708	0.390037
H	8.871381	5.254559	-0.269917
H	5.500335	7.789671	-2.714428
H	7.517008	7.126785	-1.441349
H	4.044994	3.699054	-2.675745
H	1.262528	5.116594	-5.984322
H	3.308012	4.426700	-4.778474
H	3.210726	8.139636	-2.514882
H	1.170937	8.819473	-3.729024
H	-0.291251	8.516942	-5.702721
H	-0.195871	7.038972	-6.691965
H	-3.884941	7.797112	-2.692214
H	-1.880068	8.684244	-3.828408
H	-1.429988	4.947044	-5.981830
H	-3.442090	4.051896	-4.859559
H	-5.462189	1.388895	-1.733759
H	-9.225869	1.944305	0.032520
H	-9.291808	4.352701	-0.641125
H	-6.088747	7.198824	-2.965535
H	-8.082532	6.344435	-1.773581
H	-4.230592	3.276944	-2.813620
C	6.147531	2.704359	-1.272836
N	7.204502	2.309236	-0.550404
C	8.170706	3.224119	-0.200834
C	8.075978	4.555521	-0.568520
C	5.622699	6.740282	-2.407665
C	6.757484	6.373755	-1.700962
C	6.955333	5.018580	-1.312330
C	5.954318	4.048570	-1.685883
C	4.806545	4.451847	-2.421824
C	4.614889	5.788543	-2.786017
C	1.671654	5.773361	-5.200709
C	2.824332	5.379493	-4.513671
C	3.406585	6.215103	-3.531471
C	2.792077	7.463040	-3.276034
C	1.628797	7.844085	-3.955638
C	1.043739	7.007224	-4.928172
C	-0.233610	7.411738	-5.648284
C	-3.355150	7.158408	-3.415737
C	-2.210993	7.657975	-4.050299
C	-1.486508	6.874672	-4.972241
C	-1.952367	5.569379	-5.238471
C	-3.086068	5.059759	-4.597350
C	-3.810507	5.843078	-3.667423
C	-6.285412	2.083178	-1.500457
N	-7.329637	1.587536	-0.823110
C	-8.396343	2.403024	-0.523903
C	-8.418092	3.735559	-0.898599
C	-6.117717	6.145015	-2.651455
C	-7.240159	5.670447	-1.991238
C	-7.317591	4.304765	-1.596862
C	-6.208273	3.438477	-1.915661
C	-5.074196	3.951449	-2.602766
C	-5.001563	5.298493	-2.972481
H	5.313000	1.833531	1.768267
H	9.156003	0.326293	2.502612
H	9.080219	1.035890	4.902230
H	5.615293	3.179079	7.580244
H	7.714223	2.104685	6.826944
H	3.940700	2.870171	3.585749
H	0.928263	5.932493	5.084510
H	3.037282	4.908041	4.302877
H	3.378538	2.762367	8.070297
H	1.270644	3.793501	8.841220
H	-0.411876	5.555003	8.585905
H	-0.434334	6.589704	7.137588
H	-3.897494	2.417927	7.930720
H	-1.932877	3.648331	8.783502
H	-1.629141	5.792508	5.026251
H	-3.595645	4.568910	4.162474
H	-5.476923	1.279379	1.566541
H	-9.201194	-0.554969	2.157975
H	-9.285457	0.169706	4.552015
H	-6.137533	2.630302	7.346911
H	-8.100406	1.367386	6.520545
H	-4.279544	2.445206	3.426933
C	6.119370	1.664124	2.499889
N	7.224359	1.048395	2.058678
C	8.274996	0.834218	2.919734
C	8.217847	1.227364	4.246194
C	5.709124	2.856332	6.532716
C	6.889822	2.262222	6.114985
C	7.050647	1.858149	4.759401
C	5.960642	2.093979	3.843253
C	4.766473	2.717663	4.297417
C	4.614577	3.100269	5.634061
C	1.448622	5.212443	5.734995
C	2.638090	4.627551	5.289417
C	3.362396	3.733351	6.113210
C	2.848529	3.458147	7.401618
C	1.647337	4.033765	7.835104
C	0.922838	4.919967	7.011804
C	-0.388653	5.534500	7.478352
C	-3.407314	3.158408	7.279826
C	-2.286028	3.847174	7.759725
C	-1.613522	4.794584	6.960741
C	-2.107376	5.029163	5.659391
C	-3.215620	4.332134	5.168014
C	-3.888210	3.377869	5.968162
C	-6.295834	1.044591	2.265611
N	-7.323600	0.332162	1.785486
C	-8.385507	0.030683	2.605297
C	-8.417476	0.433683	3.929571
C	-6.160105	2.293776	6.299882
C	-7.264877	1.593586	5.840853
C	-7.332984	1.168628	4.483746
C	-6.231162	1.494657	3.610306
C	-5.117025	2.225480	4.106257
C	-5.055756	2.629552	5.443780
H	5.478555	-1.375883	1.692924
H	9.261130	-1.924150	-0.034244
H	9.335881	-4.326017	0.662061
H	6.128662	-7.170393	2.984044
H	8.126801	-6.315720	1.798584
H	4.251789	-3.259759	2.786297
H	1.458705	-4.918527	5.972441
H	3.470364	-4.024693	4.848048
H	3.918030	-7.776067	2.692620
H	1.911236	-8.660597	3.828116
H	0.319153	-8.489358	5.698944
H	0.227502	-7.011393	6.688022
H	-3.225454	-8.133518	2.564072
H	-1.180571	-8.814265	3.769830
H	-1.196241	-5.061366	5.942751
H	-3.246682	-4.370864	4.745894
H	-5.357277	-1.918817	1.491934
H	-9.009420	-2.818447	-0.361864
H	-8.884809	-5.216985	0.342011
H	-5.508598	-7.748336	2.783376
H	-7.535121	-7.084270	1.526789
H	-3.999558	-3.679634	2.638672
C	6.308223	-2.067082	1.473650
N	7.354940	-1.571673	0.800132
C	8.429772	-2.382853	0.519535
C	8.456344	-3.711830	0.906521
C	6.154685	-6.119255	2.660846
C	7.279657	-5.644216	2.005225
C	7.352901	-4.281482	1.599829
C	6.236192	-3.418605	1.901958
C	5.100295	-3.931408	2.586155
C	5.032664	-5.275344	2.967755
C	1.981354	-5.542266	5.230482
C	3.114910	-5.033457	4.588526
C	3.840664	-5.819173	3.661713
C	3.386695	-7.135564	3.413437
C	2.241813	-7.633743	4.047968
C	1.516107	-6.848433	4.967210
C	0.263116	-7.384138	5.644095
C	-2.788753	-7.446027	3.305040
C	-1.622713	-7.827959	3.979837
C	-1.015405	-6.977912	4.926842
C	-1.623499	-5.729665	5.178890
C	-2.778527	-5.335459	4.496405
C	-3.383375	-6.184529	3.539579
C	-6.110551	-2.684943	1.247628
N	-7.174534	-2.289687	0.535864
C	-8.159137	-3.197604	0.222413
C	-8.075367	-4.523078	0.613728
C	-5.621396	-6.703943	2.456699
C	-6.762012	-6.336409	1.759929
C	-6.948222	-4.986662	1.347290
C	-5.928317	-4.023043	1.684577
C	-4.774799	-4.426934	2.411053
C	-4.595732	-5.758186	2.800625
