34
Coordinates from ORCA-job L-2_orca_opt
  C   -4.75255788858733     -0.65599155102825     -0.24344107375196
  C   -3.51558812881026     -0.23772205274365      0.32111767351949
  C   -2.43579427086352      0.10661485330083      0.80617713877532
  C   -1.18855690505998      0.49922795515437      1.37464278141809
  C   -1.13476005970436      1.07934235421276      2.67035346668663
  C   0.09453624504542      1.46369003504771      3.21972495379149
  C   1.28493433365176      1.28488576377150      2.50418590019121
  C   1.25938481629096      0.70669020618980      1.20664164425756
  C   2.46652787650163      0.52138495265813      0.47096616778588
  C   3.51437184255829      0.35524129671859     -0.15695429653181
  C   4.71762659856503      0.15167874297027     -0.88805195889726
  C   5.98102985334699      0.54775007045563     -0.38103546031722
  C   7.12326468965288      0.31723178678527     -1.15292702209237
  C   6.97896326197243     -0.30173099753442     -2.40684813792075
  N   5.79215823668119     -0.68546801904583     -2.90767544346760
  C   4.69971222234843     -0.46467626517208     -2.17207019570274
  C   0.01593473219784      0.31806710185511      0.65379074201360
  C   -5.98691150352018     -0.47233172767783      0.42942485335634
  C   -7.16439310906907     -0.90761855448130     -0.18523324163088
  C   -7.08342600550468     -1.51292580861316     -1.45130367134392
  N   -5.92497262829028     -1.69838547690757     -2.10748810111795
  C   -4.79917931548782     -1.28311227189713     -1.52163860724105
  H   -2.06827957600955      1.22227464264575      3.23319790981753
  H   0.12648343760382      1.91114958097358      4.22431258705694
  H   2.24890610550096      1.58932983031524      2.93609476207298
  H   6.04655026503120      1.02750268286311      0.60646050570543
  H   8.11853149247230      0.61415281392059     -0.78972006496107
  H   7.86448913564574     -0.49746925955804     -3.03773925571899
  H   3.73359339453638     -0.78656142210721     -2.59940633122943
  H   -0.01548408170573     -0.12848130654216     -0.34920641390884
  H   -6.00307690736224      0.00612224247213      1.41950264533595
  H   -8.13918553454727     -0.78045127271889      0.30922711500598
  H   -7.99795585255533     -1.86571699804543     -1.96045755824150
  H   -3.85677677252565     -1.44359392823744     -2.07482401271506
