33
Coordinates from ORCA-job L-1_orca_opt
  C   -4.66613030113561      0.24099004000330     -0.28161765228850
  C   -3.41810772113694     -0.34022327274992      0.07638446656561
  C   -2.32768031517413     -0.83510980779781      0.36512209128896
  C   -1.06683375801003     -1.42884640276195      0.69884370674635
  C   -1.02856443629632     -2.70629235513374      1.31881581273980
  C   0.21735631901690     -3.25921113573601      1.63283036035014
  C   1.37855166706454     -2.54047762170942      1.32993829990564
  C   1.24600767152931     -1.26940837122949      0.70925261947235
  C   2.41632133156522     -0.50710514706166      0.38703571112251
  C   3.43052921327262      0.14035327854410      0.12354248323131
  C   4.58942218200732      0.90337911864680     -0.18953188741226
  C   5.89447604103752      0.46034517487043      0.14162339182263
  C   6.98730737815047      1.26364574619235     -0.19538084131383
  C   6.75226417661158      2.48315117136317     -0.85380377573201
  N   5.52428944738282      2.92255248557802     -1.17847799674775
  C   4.47852895103868      2.15742662374049     -0.85560754202626
  N   0.04812829705634     -0.72592216671565      0.39980850413096
  C   -5.90104580183948     -0.39480634651315      0.00088295716276
  C   -7.08875328941578      0.23596125228025     -0.37975542770654
  C   -7.01506207455815      1.47948359336914     -1.03073245287655
  N   -5.85593389536120      2.10010028020083     -1.31011044056910
  C   -4.71981461034128      1.49954186204646     -0.94614075154692
  H   -1.96513353949640     -3.23662896211848      1.54127028815584
  H   0.28300240345073     -4.24765932165682      2.11176085482849
  H   2.37728473595987     -2.93665386494891      1.56125908487768
  H   6.03066266434693     -0.50269766397039      0.65520402293790
  H   8.01360837102768      0.95117028795264      0.04904716494585
  H   7.59758651437649      3.13732366655225     -1.13312195444598
  H   3.47634316510411      2.53193251457663     -1.12888862617589
  H   -5.90942738196033     -1.36925423197877      0.51072587490297
  H   -8.06508949527510     -0.22817403029377     -0.17549000202324
  H   -7.93822706989352      1.99978404592215     -1.34243166495096
  H   -3.77586684010483      2.02142956053694     -1.18205667937199
