52
Coordinates from ORCA-job L-3_orca_opt
  C   -2.45408895866857     -2.01822208771500      0.71580207554455
  C   -3.69714199344269     -1.35436179451905      0.51495967933475
  C   -4.78113385295194     -0.78889627934218      0.34648544528920
  C   -6.03236269000566     -0.14230835875670      0.15187135881779
  C   -7.23604825009172     -0.83688029510339      0.36161184070457
  C   -8.49207718520189     -0.21232625314807      0.17526520354440
  C   -8.56738335688754      1.11610358034403     -0.22259408452060
  C   -7.37568270647569      1.86236445188281     -0.44536770268625
  C   -6.09139183021319      1.24367558290829     -0.26145302949958
  C   -4.94371272580980      2.04661082184380     -0.49957535343670
  C   -5.10584629247162      3.36878023350064     -0.89228933263028
  N   -6.31639156553608      3.96689101823268     -1.06942878120488
  C   -7.39543210808408      3.23380679020912     -0.85167457020343
  C   -1.23591457122039     -1.34825970309205      0.52666189001343
  C   0.00983527300551     -2.00068017092730      0.74207724953890
  C   1.24885594093777     -1.32405605992711      0.56625328971951
  C   2.47314685708030     -1.97050583751768      0.79375936653532
  C   3.70918577708337     -1.28379422009253      0.63026696560148
  C   4.78915689525933     -0.70504267478486      0.48220915481105
  C   6.03389807459473     -0.04470247944033      0.29256921411319
  C   6.07891700427126      1.33977437684679     -0.12798506198904
  C   4.92335433018644      2.12874204559972     -0.37473820525758
  C   5.07224270644578      3.45045160687136     -0.77428715880293
  N   6.27662081560844      4.06101099297647     -0.95070272748311
  C   7.36289033784671      3.34115166008558     -0.72470306724015
  C   7.35679044815381      1.97199893138580     -0.31040713127651
  C   8.55604213388916      1.24066730052406     -0.07809424569656
  C   8.49427927714305     -0.08592667395070      0.32792388622722
  C   7.24460832201687     -0.72361032833957      0.51266208432929
  C   2.46375554205986     -3.34866507283185      1.20534036408783
  C   1.27059863968304     -4.02612081368556      1.37833424614708
  C   0.01650326809470     -3.38428351844918      1.15858628752908
  C   -1.23120871114914     -4.05027872739696      1.33856059372575
  C   -2.43130131236634     -3.39612676878184      1.12748746432599
  H   -7.18941403156750     -1.88838988609883      0.67936740213799
  H   -9.41126421339370     -0.79126926497130      0.35057697130661
  H   -9.54173249488239      1.60785865789539     -0.36973229988681
  H   -3.93988665527048      1.61563495994852     -0.36975298930366
  H   -4.22313598670550      4.00412111601619     -1.08162677002882
  H   -8.37636449909937      3.72620132482048     -0.99660190292196
  H   -1.24060653878318     -0.29503946631754      0.20936836127390
  H   1.24278844025730     -0.27085278994247      0.24888463025837
  H   3.92382758488687      1.68760205704709     -0.24575073535827
  H   4.18300456415516      4.07465443207446     -0.97000227517600
  H   8.33895878598226      3.84329889965181     -0.86890984238504
  H   9.52525939537564      1.74274483221916     -0.22430671747923
  H   9.41914172935898     -0.65332149728412      0.51088543200788
  H   7.20886836635978     -1.77359959840568      0.83688563324236
  H   3.42424525636405     -3.85312877242900      1.38298127262106
  H   1.27686559334645     -5.08015943467709      1.69642746458466
  H   -1.22714578751923     -5.10434025016693      1.65663259302330
  H   -3.38687304164892     -3.91939659478938      1.27448656407086
