65
Coordinates from ORCA-job L-4_orca_opt
  C   -0.00591247122477     -0.06127673772789      0.35072311698576
  C   -0.02739259123238      0.79409144284041      1.59934721009636
  C   -1.26192470285778      1.12115557693574      2.23199295408613
  C   -2.58035115474947      0.73479080941498      1.64845907142435
  C   -3.52275822827330      0.01687173383125      2.41816347324845
  C   -4.77540029723477     -0.32816468931090      1.89458349530547
  C   -2.95481319104260      1.10942076414813      0.33783483826887
  C   -4.20706187586447      0.76691150958634     -0.18669358512335
  C   -5.14223411156352      0.03146559049425      0.57835343947831
  C   -6.48809588554066     -0.31633133855003      0.04518244286520
  C   -6.65913861642206     -0.99968424338000     -1.21438311091597
  C   -5.58893239973114     -1.47128987106770     -2.03084562832204
  C   -5.86834961493855     -2.12369339640396     -3.22377345043578
  N   -7.12610485214232     -2.35698755140812     -3.69121550372484
  C   -8.13384914602291     -1.94734593526103     -2.93987663314414
  C   -7.99376268565879     -1.27251061760118     -1.68656300984796
  C   -9.12163267380722     -0.89044320753482     -0.90772467353774
  C   -8.93768288503125     -0.26415347153303      0.31462699043504
  C   -7.62800413284832      0.01773430660680      0.78177695750474
  C   -1.26188284639701      1.81353275481255      3.46298124149282
  C   -0.06394182119603      2.20049798685981      4.07255347841627
  C   1.15141322511082      1.90411612479048      3.44641017956575
  C   1.18786343341152      1.21327092411458      2.21497246426609
  C   2.52397150926762      0.93188059395657      1.61274900005930
  C   3.53687070553461      0.30636899275432      2.37407632484479
  C   4.80784452322492      0.06853524592972      1.83547945728413
  C   2.84467449566946      1.32359682156798      0.29309154537831
  C   4.11507462959487      1.08846943587136     -0.24683712401172
  C   5.12272969419201      0.44773504380483      0.51123686393142
  C   6.48857187791293      0.22289639218455     -0.03683049976495
  C   7.60148868712637      0.66361847718007      0.68471339522670
  C   8.92568268049873      0.50789911743160      0.19944874297693
  C   9.15191368002829     -0.09576739482458     -1.02706803317302
  C   8.05492417141942     -0.58461062680095     -1.79041470123416
  C   6.70712597144885     -0.44279043829982     -1.29848750658933
  C   5.67657034955535     -1.01823293873273     -2.09925602136300
  C   6.00068865389897     -1.63932457733784     -3.29756332427148
  N   7.26794312602359     -1.74693473581407     -3.78487373374222
  C   8.24196945209460     -1.24135617435705     -3.04722190771565
  H   -0.04049119698470      0.54081704178984     -0.58183642639711
  H   -0.87898891621770     -0.74067570400596      0.31841295369829
  H   0.91649604862342     -0.67030450834404      0.29934831643312
  H   -3.25544116713866     -0.29559825021993      3.43900542971669
  H   -5.48069862766009     -0.91013279363833      2.50831273897391
  H   -2.25972109715227      1.70553020706874     -0.27306709753645
  H   -4.48028412520166      1.10351159456232     -1.19808141087499
  H   -4.54653364445239     -1.33180869290264     -1.71211064584128
  H   -5.04337928435209     -2.49360138942872     -3.85738460581877
  H   -9.15588859658007     -2.15133564005651     -3.31427747339661
  H   -10.13208314825659     -1.10573840811136     -1.28919574644599
  H   -9.80474934610008      0.03099229572303      0.92453174381779
  H   -7.50076735519880      0.54160458845710      1.74160146390703
  H   -2.22570717543160      2.06228021333661      3.93259316561587
  H   -0.07682908046668      2.74374300353237      5.02929807828275
  H   2.09949800436544      2.22580339308949      3.90352976913099
  H   3.31180297062695     -0.01798285985757      3.40156415250735
  H   5.57108098797524     -0.44174048744297      2.44345613620778
  H   2.09166948432494      1.85005336998121     -0.31287171638613
  H   4.34276472000579      1.43818231783939     -1.26523979099861
  H   7.43875551051361      1.17396687526370      1.64640446591371
  H   9.76830329170481      0.88423589267237      0.79880329448634
  H   10.17292791227298     -0.21079644142566     -1.42384672173809
  H   4.63055214021237     -0.98341048083884     -1.76395808969096
  H   5.20626772418960     -2.08815858434209     -3.91922610246075
  H   9.27344928414462     -1.34349825187219     -3.43749411732974
