40
Coordinates from ORCA-job L-5_orca_opt
  C   5.92168230081309      0.00273790446827      1.41539485803428
  C   4.74400468257352     -0.01145747680883      0.61841930094457
  C   3.71466450508952     -0.01781623340670     -0.06113139114413
  C   2.53656278839726     -0.01197490003967     -0.86116950844613
  C   2.64003123069630      0.02003229173348     -2.29498788204760
  C   1.50530203075828      0.03363912180277     -3.08492364878551
  C   0.20170964542147      0.01632456056611     -2.50708171574205
  C   -0.98793415535387      0.03439732862559     -3.29301057565909
  C   -2.23821730925842      0.02017565956095     -2.70196829841159
  C   -2.37245658903045     -0.01505812325731     -1.27101889759737
  C   -3.66534787260305     -0.02468474040945     -0.67417864331562
  C   -4.78923920779371     -0.01874231828138     -0.16605152880995
  C   -6.07460050232101     -0.00072435888709      0.44239197954238
  C   -7.26534536430998      0.13198463197261     -0.31594123685692
  C   -8.49426914497187      0.14466984343508      0.34988135728662
  C   -8.50650476551070      0.02496824256148      1.75048300624942
  N   -7.39125524078085     -0.10209259417266      2.48955722489225
  C   -6.21629221268367     -0.11428236755598      1.85527995087983
  C   -1.21356750248014     -0.03601365547989     -0.48114481206893
  C   0.08224601856707     -0.01899877980605     -1.06799651770738
  C   1.26315564204405     -0.03293814611738     -0.27397233802806
  C   7.21799851592061      0.00500166540792      0.84057383877071
  C   8.33302575559910      0.02251052977274      1.68285871958854
  C   8.13033363914912      0.03696950253960      3.07381323222629
  N   6.91192961054613      0.03437797623865      3.64137081180814
  C   5.84566975430373      0.01766937833644      2.83789377323408
  H   3.64020064644453      0.03546050289074     -2.75173823841639
  H   1.59911283000367      0.06007083570150     -4.18253340701499
  H   -0.89714989915081      0.06165845015329     -4.39075704547479
  H   -3.14946562807994      0.03576261156786     -3.31712201392298
  H   -7.20747276332233      0.22526632238156     -1.41089965793690
  H   -9.43735331367234      0.24793689438397     -0.20781724021117
  H   -9.46345177532334      0.03259737856010      2.30262435361102
  H   -5.31027875188244     -0.21997581434049      2.47804181517089
  H   -1.30777802152011     -0.06370670297397      0.61529932344773
  H   1.17181386004355     -0.05875304774234      0.82262455716531
  H   7.32989065760204     -0.00704357490849     -0.25424238408570
  H   9.35249692295168      0.02494248396483      1.26827489866217
  H   8.99354644108216      0.05143120486148      3.76314909479809
  H   4.85270254204215      0.01617751270070      3.32185488537093
