18
Coordinates from ORCA-job naphthalene-1,4-dione_orca_opt
  O   -1.39155125153918     -2.64761514927365     -0.07704644714400
  C   -1.30562907650838     -1.41966356657857     -0.05259311192226
  C   -2.52528542204183     -0.56755800638371     -0.06160502425596
  C   -2.46560039372202      0.78715573678752     -0.03605753453617
  C   0.01251143923250     -0.70963084947668     -0.01268503923946
  C   0.07500235946052      0.70652983405219      0.01402634865752
  C   1.32530626941283      1.34972260549698      0.05138056407810
  C   2.50488979964374      0.59305729996100      0.06220838306083
  C   2.44286709078588     -0.81272640603695      0.03554874116299
  C   1.20118663917393     -1.46168892494797     -0.00200212813120
  C   -1.17623909125823      1.52932390936600      0.00323959981454
  O   -1.15671059426813      2.76024942583031      0.02602053502793
  H   -3.48302925228531     -1.11135286791299     -0.09099201054986
  H   -3.37011877720398      1.41611025441118     -0.04315845585443
  H   1.34001379420700      2.45046633176666      0.07170760675352
  H   3.48125780824150      1.10076746432426      0.09191001959477
  H   3.37146983706262     -1.40380157593159      0.04417691486761
  H   1.11955882160655     -2.55934551545397     -0.02407896138445
