12
Coordinates from ORCA-job quinone_orca_opt
  O   0.62803616575480      2.61355465020697      0.07156629562903
  C   0.34131268298173      1.41668270525784      0.03980615496407
  C   1.39331007320157      0.36140124924410      0.02678759722455
  C   1.07533725327798     -0.95575354959024     -0.00964732508374
  C   -0.34118561053791     -1.41672448088598     -0.03851229344010
  C   -1.39344052142499     -0.36131721807226     -0.02666043304094
  C   -1.07546067971374      0.95578722406296      0.00977700767893
  O   -0.62877000047861     -2.61336173444522     -0.07181525508050
  H   2.43453779961434      0.72078386519238      0.04880903606503
  H   1.83787434107271     -1.75067689945228     -0.01988541576019
  H   -2.43432271024301     -0.72162519631150     -0.04933281677682
  H   -1.83722879350487      1.75134938479322      0.01940744762068
