12

C   -0.29390  1.37410   -0.04550 
C   1.00050   0.92810   -0.01790 
C   1.27430   -0.44810  0.02750  
O   2.61260   -0.86050  0.05450  
C   0.24120   -1.34910  0.04410  
C   -1.05780  -0.91310  0.01680  
C   -1.31750  0.46490   -0.02840 
H   -0.50180  2.41690   -0.07980 
H   1.85310   1.60910   -0.02970 
H   0.45330   -2.39850  0.07870  
H   -1.89620  -1.61170  0.02930  
H   -2.36790  0.78790   -0.04970 
