148

C   1.21249   -3.97431  0.98965  
C   2.43729   -4.71301  1.11765  
C   3.47889   -5.32121  1.23165  
C   4.72909   -6.02571  1.36115  
C   4.70819   -7.39351  1.47555  
C   5.91689   -8.07891  1.60115  
C   7.12199   -7.40631  1.61185  
C   7.15109   -6.03471  1.49755  
C   8.36989   -5.27651  1.50165  
C   9.37809   -4.63631  1.48745  
C   10.61049  -3.87981  1.45845  
C   11.83449  -4.44691  1.57565  
C   12.96439  -3.66231  1.53895  
C   12.84779  -2.29841  1.38275  
N   11.63399  -1.75271  1.26835  
C   10.51939  -2.51131  1.30285  
C   5.94349   -5.37171  1.37385  
C   0.03649   -4.49331  1.48775  
C   -1.12021  -3.73631  1.33685  
C   -1.13461  -2.51191  0.72075  
N   0.02779   -2.03501  0.24665  
C   1.17339   -2.74161  0.37425  
H   3.77569   -7.93691  1.46935  
H   5.88739   -9.15391  1.69035  
H   8.07509   -7.91681  1.70835  
H   11.94709  -5.50461  1.69775  
H   13.97249  -4.08651  1.63065  
H   13.72639  -1.69061  1.35445  
H   9.57609   -1.99711  1.20405  
H   5.90109   -4.28581  1.27975  
H   -0.02131  -5.45411  1.98515  
H   -2.03191  -4.14061  1.72405  
H   -2.05011  -1.91981  0.60485  
H   2.06529   -2.28081  -0.03745 
C   1.56537   -0.85023  -3.88219 
C   2.84125   -0.84095  -4.54115 
C   3.92560   -0.83815  -5.08154 
C   5.22466   -0.82750  -5.70476 
C   5.30361   -0.94432  -7.07023 
C   6.55987   -0.93442  -7.67704 
C   7.71346   -0.80994  -6.92970 
C   7.64241   -0.69230  -5.55991 
C   8.80341   -0.55968  -4.72633 
C   9.76101   -0.43249  -4.02394 
C   10.93191  -0.26546  -3.19145 
C   12.19489  -0.24543  -3.67929 
C   13.26149  -0.08219  -2.82528 
C   13.04177  0.06080   -1.47270 
N   11.79057  0.03911   -1.00555 
C   10.73725  -0.12022  -1.83266 
C   6.38888   -0.70398  -4.97538 
C   0.48763   -1.47698  -4.47049 
C   -0.72444  -1.45589  -3.78914 
C   -0.88523  -0.84454  -2.57286 
N   0.18437   -0.24319  -2.02725 
C   1.37963   -0.24234  -2.65917 
H   4.41266   -1.04272  -7.67140 
H   6.60887   -1.02699  -8.75104 
H   8.70187   -0.79959  -7.37830 
H   12.38738  -0.35480  -4.72681 
H   14.29843  -0.06087  -3.18433 
H   13.87132  0.18749   -0.81092 
H   9.75806   -0.12718  -1.37976 
H   6.26733   -0.61457  -3.89507 
H   0.54683   -1.97829  -5.42917 
H   -1.55972  -1.94281  -4.24716 
H   -1.84371  -0.83136  -2.04060 
H   2.18896   0.26675   -2.14621 
C   1.17349   4.03234   -0.77961 
C   2.36474   4.82981   -0.69492 
C   3.37967   5.48803   -0.62789 
C   4.59781   6.25257   -0.54010 
C   4.53124   7.61824   -0.66220 
C   5.70881   8.36168   -0.57773 
C   6.92829   7.74805   -0.37499 
C   7.00312   6.37898   -0.25154 
C   8.23905   5.68049   -0.03955 
C   9.25898   5.08962   0.15318  
C   10.50242  4.39334   0.40013  
C   11.69927  5.01932   0.49604  
C   12.84193  4.29000   0.73280  
C   12.76578  2.92141   0.87203  
N   11.57841  2.31731   0.77505  
C   10.45168  3.02139   0.54325  
C   5.82588   5.65798   -0.33778 
C   0.07887   4.49611   -1.47759 
C   -1.04852  3.68356   -1.52776 
C   -1.11118  2.45728   -0.91845 
N   -0.02779  2.03501   -0.24665 
C   1.08705   2.79659   -0.17526 
H   3.58687   8.11599   -0.82122 
H   5.64351   9.43438   -0.67528 
H   7.85784   8.30435   -0.30576 
H   11.78030  6.08173   0.39099  
H   13.82889  4.76273   0.81672  
H   13.65423  2.35659   1.05588  
H   9.53154   2.46187   0.47801  
H   5.82014   4.57090   -0.24792 
H   0.06253   5.45511   -1.98152 
H   -1.89703  4.04504   -2.06991 
H   -2.00321  1.82122   -0.96166 
H   1.91454   2.37761   0.38780  
C   0.82060   0.90827   4.09222  
C   1.96077   0.95775   4.96387  
C   2.93295   1.00497   5.68530  
C   4.10223   1.05436   6.52581  
C   3.93581   1.16905   7.88358  
C   5.06582   1.21719   8.70045  
C   6.33681   1.15169   8.16655  
C   6.51179   1.03657   6.80591  
C   7.80553   0.96366   6.18842  
C   8.87606   0.88580   5.66457  
C   10.18100  0.77899   5.05003  
C   11.33887  0.81785   5.75098  
C   12.54482  0.70988   5.09703  
C   12.57180  0.56221   3.72747  
N   11.42183  0.52549   3.04895  
C   10.23382  0.63030   3.67875  
C   5.38049   0.99025   6.01144  
C   -0.37227  1.47979   4.48065  
C   -1.44429  1.40314   3.59823  
C   -1.36056  0.78991   2.37516  
N   -0.18437  0.24319   2.02725  
C   0.88081   0.29732   2.85816  
H   2.94989   1.22180   8.31953  
H   4.92202   1.30745   9.76611  
H   7.23105   1.18713   8.78088  
H   11.34001  0.93192   6.81555  
H   13.50295  0.73709   5.63170  
H   13.50929  0.47849   3.22125  
H   9.34957   0.59194   3.06181  
H   5.45390   0.89967   4.92690  
H   -0.50562  1.97929   5.43280  
H   -2.36922  1.84725   3.90129  
H   -2.20961  0.73277   1.68378  
H   1.79087   -0.16995  2.49655  
Pd  0.00000   0.00000   0.00000  
Pd  11.60620  0.28230   1.02170  
C   5.39741   1.38020   0.17486  
C   4.67794   0.11378   0.41180  
C   5.49247   -1.09108  0.77800  
O   3.48549   0.08478   0.30683  
H   6.48374   1.29623   0.36887  
H   5.29105   1.61803   -0.91612 
H   5.00115   2.19126   0.81403  
H   5.97529   -0.84398  1.73683  
H   6.29883   -1.15050  0.01182  
H   4.88240   -2.00542  0.79933  
