150

C   4.70947   -4.13457  -0.18732 
C   3.49657   -4.89677  -0.08222 
C   2.46347   -5.52277  -0.00122 
C   1.21747   -6.24887  0.09088  
C   1.24137   -7.60367  0.16528  
C   0.04697   -8.28687  0.25288  
C   -1.16553  -7.61467  0.26558  
C   -1.20613  -6.23657  0.19048  
C   -2.45833  -5.50447  0.20158  
C   -3.49293  -4.88177  0.19798  
C   -4.71343  -4.12487  0.18238  
C   -5.92503  -4.68517  -0.16632 
C   -7.09523  -3.92997  -0.17382 
C   -7.03823  -2.61107  0.17078  
N   -5.85273  -2.04877  0.51548  
C   -4.72413  -2.78507  0.52078  
C   0.00447   -5.58247  0.10398  
C   5.95677   -4.76017  -0.23332 
C   7.11727   -4.01467  -0.33452 
C   7.06927   -2.63837  -0.39222 
N   5.86867   -2.03847  -0.34772 
C   4.73487   -2.75587  -0.24942 
H   2.19267   -8.11587  0.15448  
H   0.02827   -9.37687  0.31438  
H   -2.11313  -8.14407  0.33438  
H   -5.94203  -5.71847  -0.43162 
H   -8.04313  -4.36977  -0.44692 
H   -7.92663  -1.96447  0.18368  
H   -3.81013  -2.28627  0.80308  
H   -0.02263  -4.50577  0.04508  
H   5.98847   -5.82207  -0.18852 
H   8.09927   -4.49127  -0.37142 
H   7.97247   -2.04167  -0.47162 
H   3.78577   -2.21187  -0.21732 
C   4.99800   0.16319   3.78184  
C   3.83916   0.17786   4.63037  
C   2.85106   0.18186   5.32993  
C   1.65765   0.18110   6.14478  
C   1.77423   0.25707   7.49468  
C   0.62936   0.25566   8.26299  
C   -0.62633  0.17822   7.68038  
C   -0.76115  0.10031   6.30844  
C   -2.06055  0.01832   5.66896  
C   -3.13449  -0.06216  5.12275  
C   -4.40217  -0.16843  4.45609  
C   -5.54073  -0.60621  5.10071  
C   -6.75887  -0.70065  4.43215  
C   -6.82343  -0.35277  3.11446  
N   -5.71068  0.07908   2.46971  
C   -4.53513  0.16824   3.12242  
C   0.40186   0.10402   5.56799  
C   6.28738   0.21001   4.31528  
C   7.39502   0.19534   3.48721  
C   7.25168   0.13423   2.11770  
N   6.01072   0.08938   1.60651  
C   4.92781   0.10315   2.40460  
H   2.75836   0.31700   7.93663  
H   0.68530   0.31560   9.35180  
H   -1.53550  0.17640   8.27733  
H   -5.46299  -0.87204  6.13109  
H   -7.64949  -1.04344  4.93792  
H   -7.75492  -0.40593  2.53393  
H   -3.68318  0.51769   2.56031  
H   0.30114   0.04327   4.49577  
H   6.39265   0.25704   5.37232  
H   8.40904   0.23152   3.89129  
H   8.11259   0.12218   1.45678  
H   3.94197   0.06463   1.93090  
C   4.67887   4.14282   -0.50406 
C   3.46233   4.90289   -0.43025 
C   2.42742   5.52707   -0.35896 
C   1.18010   6.25098   -0.26744 
C   1.19048   7.60581   -0.34436 
C   -0.00506  8.28691   -0.25596 
C   -1.20517  7.61259   -0.09099 
C   -1.23192  6.23443   -0.01093 
C   -2.47095  5.50014   0.16143  
C   -3.49277  4.87564   0.31647  
C   -4.69650  4.11661   0.51060  
C   -5.84492  4.67483   1.03310  
C   -7.00008  3.91759   1.21185  
C   -6.99187  2.59875   0.86244  
N   -5.86867  2.03847   0.34772  
C   -4.75431  2.77675   0.17725  
C   -0.02057  5.58246   -0.10279 
C   5.91836   4.77061   -0.64120 
C   7.08247   4.02715   -0.71119 
C   7.04584   2.65078   -0.64726 
N   5.85273   2.04877   -0.51548 
C   4.71551   2.76418   -0.44653 
H   2.13220   8.11967   -0.47297 
H   -0.03448  9.37687   -0.31392 
H   -2.15355  8.14032   -0.02016 
H   -5.82468  5.70813   1.29816  
H   -7.89851  4.35577   1.62092  
H   -7.87144  1.95059   0.97974  
H   -3.89066  2.27951   -0.23597 
H   -0.03686  4.50572   -0.04069 
H   5.94130   5.83256   -0.69002 
H   8.05844   4.50547   -0.81848 
H   7.95197   2.05567   -0.70110 
H   3.77290   2.21852   -0.33932 
C   4.39035   -0.15494  -4.47323 
C   3.11974   -0.17174  -5.14285 
C   2.03983   -0.17756  -5.69011 
C   0.73992   -0.17899  -6.32134 
C   0.65762   -0.25493  -7.67377 
C   -0.58745  -0.25562  -8.26608 
C   -1.74437  -0.18030  -7.50579 
C   -1.67690  -0.10245  -6.12890 
C   -2.86874  -0.02265  -5.30595 
C   -3.85122  0.05603   -4.60830 
C   -5.00775  0.16016   -3.76311 
C   -6.22922  0.59586   -4.23394 
C   -7.33644  0.68826   -3.39413 
C   -7.20667  0.34044   -2.08124 
N   -6.01072  -0.08938  -1.60651 
C   -4.94331  -0.17657  -2.42440 
C   -0.41796  -0.10403  -5.56681 
C   5.58776   -0.19958  -5.18980 
C   6.80472   -0.18286  -4.53292 
C   6.86344   -0.12183  -3.15718 
N   5.71068   -0.07908  -2.46971 
C   4.52257   -0.09485  -3.10056 
H   1.56651   -0.31320  -8.25512 
H   -0.69150  -0.31561  -9.35134 
H   -2.73118  -0.18015  -7.96312 
H   -6.30372  0.86170   -5.26455 
H   -8.29215  1.02943   -3.76393 
H   -8.04315  0.39204   -1.37051 
H   -4.01760  -0.52446  -1.99320 
H   -0.36063  -0.04332  -4.49139 
H   5.53712   -0.24656  -6.25087 
H   7.74868   -0.21732  -5.08119 
H   7.81186   -0.10818  -2.62951 
H   3.61669   -0.05798  -2.48754 
Pd  5.86070   0.00515   -0.43160 
Pd  -5.86070  -0.00515  0.43160  
O   2.66691   0.00600   -0.19640 
C   1.41243   0.01949   -0.10293 
C   0.65029   -1.22398  -0.12923 
C   -0.66547  -1.27742  -0.03567 
C   -1.41140  -0.01871  0.10273  
C   -0.65605  1.23227   0.12997  
C   0.66023   1.28227   0.03625  
O   -2.66868  -0.00357  0.19653  
H   1.20156   -2.14923  -0.23117 
H   -1.20654  -2.21197  -0.05765 
H   -1.21731  2.15189   0.23235  
H   1.19308   2.21898   0.05902  
