143

C   4.70797   -4.13458  -0.18721 
C   3.49507   -4.89678  -0.08211 
C   2.46197   -5.52278  -0.00111 
C   1.21597   -6.24888  0.09099  
C   1.23987   -7.60368  0.16539  
C   0.04547   -8.28688  0.25299  
C   -1.16703  -7.61468  0.26569  
C   -1.20763  -6.23658  0.19059  
C   -2.45983  -5.50448  0.20169  
C   -3.49443  -4.88178  0.19809  
C   -4.71493  -4.12488  0.18249  
C   -5.92653  -4.68518  -0.16621 
C   -7.09673  -3.92998  -0.17371 
C   -7.03973  -2.61108  0.17089  
N   -5.85423  -2.04878  0.51559  
C   -4.72563  -2.78508  0.52089  
C   0.00297   -5.58248  0.10409  
C   5.95527   -4.76018  -0.23321 
C   7.11577   -4.01468  -0.33441 
C   7.06777   -2.63838  -0.39211 
N   5.86717   -2.03848  -0.34761 
C   4.73337   -2.75588  -0.24931 
H   2.19117   -8.11588  0.15459  
H   0.02677   -9.37688  0.31449  
H   -2.11463  -8.14408  0.33449  
H   -5.94353  -5.71848  -0.43151 
H   -8.04463  -4.36978  -0.44681 
H   -7.92813  -1.96448  0.18379  
H   -3.81163  -2.28628  0.80319  
H   -0.02413  -4.50578  0.04519  
H   5.98697   -5.82208  -0.18841 
H   8.09777   -4.49128  -0.37131 
H   7.97097   -2.04168  -0.47151 
H   3.78427   -2.21188  -0.21721 
C   4.99649   0.16319   3.78195  
C   3.83766   0.17786   4.63049  
C   2.84956   0.18185   5.33004  
C   1.65615   0.18110   6.14489  
C   1.77272   0.25707   7.49479  
C   0.62785   0.25566   8.26310  
C   -0.62783  0.17821   7.68049  
C   -0.76266  0.10031   6.30856  
C   -2.06205  0.01831   5.66907  
C   -3.13599  -0.06216  5.12286  
C   -4.40368  -0.16843  4.45620  
C   -5.54224  -0.60621  5.10083  
C   -6.76037  -0.70065  4.43226  
C   -6.82493  -0.35277  3.11457  
N   -5.71219  0.07908   2.46982  
C   -4.53663  0.16824   3.12253  
C   0.40036   0.10401   5.56810  
C   6.28587   0.21001   4.31539  
C   7.39351   0.19534   3.48732  
C   7.25017   0.13423   2.11781  
N   6.00921   0.08938   1.60662  
C   4.92631   0.10315   2.40471  
H   2.75686   0.31700   7.93674  
H   0.68379   0.31560   9.35191  
H   -1.53700  0.17640   8.27744  
H   -5.46449  -0.87204  6.13120  
H   -7.65100  -1.04344  4.93803  
H   -7.75642  -0.40593  2.53404  
H   -3.68469  0.51769   2.56043  
H   0.29963   0.04326   4.49589  
H   6.39114   0.25704   5.37243  
H   8.40754   0.23152   3.89140  
H   8.11108   0.12218   1.45689  
H   3.94047   0.06463   1.93101  
C   4.67737   4.14282   -0.50395 
C   3.46083   4.90289   -0.43014 
C   2.42591   5.52707   -0.35884 
C   1.17860   6.25098   -0.26733 
C   1.18897   7.60581   -0.34425 
C   -0.00657  8.28691   -0.25585 
C   -1.20667  7.61259   -0.09088 
C   -1.23342  6.23443   -0.01082 
C   -2.47246  5.50014   0.16154  
C   -3.49428  4.87563   0.31658  
C   -4.69800  4.11660   0.51071  
C   -5.84643  4.67483   1.03321  
C   -7.00158  3.91759   1.21196  
C   -6.99337  2.59874   0.86255  
N   -5.87018  2.03847   0.34784  
C   -4.75582  2.77674   0.17736  
C   -0.02207  5.58246   -0.10268 
C   5.91686   4.77061   -0.64109 
C   7.08096   4.02715   -0.71108 
C   7.04434   2.65078   -0.64715 
N   5.85122   2.04877   -0.51536 
C   4.71400   2.76418   -0.44642 
H   2.13069   8.11967   -0.47286 
H   -0.03598  9.37687   -0.31381 
H   -2.15505  8.14032   -0.02005 
H   -5.82619  5.70813   1.29827  
H   -7.90002  4.35576   1.62103  
H   -7.87295  1.95059   0.97985  
H   -3.89216  2.27951   -0.23586 
H   -0.03837  4.50572   -0.04058 
H   5.93979   5.83256   -0.68991 
H   8.05694   4.50547   -0.81837 
H   7.95047   2.05567   -0.70099 
H   3.77139   2.21851   -0.33921 
C   4.38884   -0.15494  -4.47312 
C   3.11824   -0.17174  -5.14274 
C   2.03832   -0.17756  -5.68999 
C   0.73842   -0.17899  -6.32123 
C   0.65612   -0.25493  -7.67366 
C   -0.58895  -0.25563  -8.26596 
C   -1.74587  -0.18030  -7.50568 
C   -1.67840  -0.10245  -6.12879 
C   -2.87024  -0.02265  -5.30584 
C   -3.85272  0.05602   -4.60819 
C   -5.00926  0.16016   -3.76300 
C   -6.23072  0.59586   -4.23383 
C   -7.33794  0.68826   -3.39402 
C   -7.20817  0.34044   -2.08113 
N   -6.01222  -0.08939  -1.60640 
C   -4.94482  -0.17658  -2.42429 
C   -0.41946  -0.10403  -5.56670 
C   5.58625   -0.19958  -5.18969 
C   6.80322   -0.18286  -4.53281 
C   6.86194   -0.12183  -3.15707 
N   5.70918   -0.07909  -2.46960 
C   4.52106   -0.09485  -3.10045 
H   1.56500   -0.31320  -8.25501 
H   -0.69301  -0.31561  -9.35123 
H   -2.73268  -0.18015  -7.96301 
H   -6.30523  0.86169   -5.26444 
H   -8.29365  1.02943   -3.76382 
H   -8.04466  0.39204   -1.37040 
H   -4.01911  -0.52446  -1.99309 
H   -0.36213  -0.04332  -4.49128 
H   5.53562   -0.24656  -6.25076 
H   7.74717   -0.21733  -5.08108 
H   7.81036   -0.10819  -2.62940 
H   3.61519   -0.05799  -2.48743 
Pd  5.85919   0.00515   -0.43149 
Pd  -5.86221  -0.00515  0.43171  
C   0.00490   0.00196   0.00429  
H   -0.61010  -0.81344  -0.44551 
H   -0.46840  0.96626   -0.28611 
H   0.01670   -0.12684  1.10089  
H   1.02740   -0.04924  -0.42211 
