143

C   -5.10675  4.39201   -6.61381 
C   -3.74095  4.01591   -6.85871 
C   -2.58785  3.72021   -7.06201 
C   -1.22955  3.34971   -7.31581 
C   -0.84835  2.19831   -7.99251 
C   0.47405   1.88871   -8.21011 
C   1.47585   2.71131   -7.76381 
C   1.12275   3.86231   -7.08811 
C   2.10815   4.77751   -6.58781 
C   2.91635   5.55561   -6.16431 
C   3.86775   6.50291   -5.64601 
C   5.03415   6.09121   -5.00081 
C   5.93835   7.01341   -4.50841 
C   5.64005   8.34611   -4.68111 
N   4.52455   8.77361   -5.29831 
C   3.64855   7.86041   -5.77521 
C   -0.20915  4.16301   -6.87541 
C   -6.14805  3.48571   -6.60921 
C   -7.45215  3.89701   -6.36741 
C   -7.74925  5.22321   -6.12401 
N   -6.71835  6.08841   -6.13341 
C   -5.44425  5.71731   -6.36501 
H   -1.67305  1.56781   -8.33301 
H   0.73225   0.99261   -8.73571 
H   2.53635   2.47981   -7.92861 
H   5.20215   5.03811   -4.90171 
H   6.82805   6.65771   -4.01601 
H   6.34265   9.06911   -4.29841 
H   2.72725   8.16741   -6.28481 
H   -0.49315  5.07741   -6.33851 
H   -5.90305  2.43921   -6.80271 
H   -8.26985  3.17961   -6.36471 
H   -8.75835  5.57571   -5.93171 
H   -4.61915  6.41941   -6.37101 
C   -6.13010  5.02567   5.12598  
C   -4.97601  5.64438   4.53259  
C   -3.99727  6.16461   4.05317  
C   -2.85207  6.78989   3.46648  
C   -2.87325  7.48641   2.26508  
C   -1.74162  8.06978   1.74448  
C   -0.53857  7.98580   2.39646  
C   -0.49131  7.29855   3.59292  
C   0.72673   7.16318   4.33921  
C   1.73390   7.04108   4.97849  
C   2.93027   6.88019   5.76206  
C   4.15972   6.58916   5.17042  
C   5.30003   6.43760   5.93672  
C   5.17073   6.58526   7.29921  
N   4.00004   6.86554   7.89835  
C   2.89232   7.01118   7.13645  
C   -1.63472  6.71655   4.10625  
C   -7.24711  4.66354   4.40013  
C   -8.33869  4.06798   5.01826  
C   -8.34236  3.81893   6.37630  
N   -7.24286  4.18034   7.06325  
C   -6.17030  4.75942   6.48970  
H   -3.84838  7.53240   1.77455  
H   -1.79399  8.59944   0.81569  
H   0.37444   8.44528   1.99558  
H   4.18690   6.48801   4.10454  
H   6.23154   6.21313   5.44432  
H   6.05780   6.46775   7.90099  
H   1.91845   7.24005   7.58581  
H   -1.60043  6.16945   5.05732  
H   -7.23471  4.86457   3.32679  
H   -9.21699  3.78418   4.44263  
H   -9.18021  3.35497   6.88841  
H   -5.28836  5.04775   7.04901  
C   -3.45568  -6.43702  5.97781  
C   -2.45402  -5.49549  6.39856  
C   -1.59805  -4.71995  6.75109  
C   -0.60174  -3.78709  7.17978  
C   -0.87764  -2.61054  7.86430  
C   0.11944   -1.74697  8.25419  
C   1.43547   -2.01599  7.98005  
C   1.73585   -3.17958  7.30044  
C   3.08659   -3.53683  6.97366  
C   4.20862   -3.85392  6.69354  
C   5.54631   -4.25450  6.34526  
C   6.48049   -3.34111  5.85609  
C   7.76163   -3.74138  5.52601  
C   8.07342   -5.07085  5.69972  
N   7.19517   -5.97453  6.16882  
C   5.94512   -5.56911  6.48781  
C   0.72570   -4.03964  6.91377  
C   -4.78114  -6.09599  5.79741  
C   -5.71298  -7.04131  5.38953  
C   -5.34487  -8.35055  5.15140  
N   -4.04773  -8.65973  5.33372  
C   -3.12287  -7.76344  5.72866  
H   -1.93627  -2.42985  8.06491  
H   -0.12909  -0.84856  8.78051  
H   2.24398   -1.33810  8.28368  
H   6.16915   -2.32225  5.74634  
H   8.45551   -3.00746  5.15124  
H   9.07182   -5.38760  5.44336  
H   5.19907   -6.27433  6.87356  
H   0.96127   -4.96561  6.37328  
H   -5.06250  -5.05817  5.98821  
H   -6.75652  -6.76844  5.24858  
H   -6.04980  -9.11242  4.83179  
H   -2.08014  -8.01944  5.87340  
C   -2.43233  -7.07068  -5.76198 
C   -1.21896  -7.12396  -4.99274 
C   -0.18863  -7.16436  -4.36410 
C   1.02079   -7.22727  -3.60250 
C   1.14726   -7.89864  -2.39328 
C   2.33510   -7.92804  -1.70039 
C   3.44989   -7.29047  -2.18021 
C   3.34991   -6.61582  -3.38059 
C   4.46801   -5.92250  -3.95336 
C   5.39107   -5.33939  -4.44926 
C   6.48378   -4.63178  -5.06280 
C   7.35492   -3.83906  -4.31514 
C   8.39995   -3.16556  -4.91911 
C   8.54274   -3.31000  -6.28060 
N   7.71967   -4.06646  -7.02783 
C   6.70134   -4.71987  -6.42385 
C   2.15127   -6.59318  -4.06788 
C   -3.68209  -7.27381  -5.21193 
C   -4.82644  -7.21228  -5.99614 
C   -4.75177  -6.94626  -7.34891 
N   -3.52323  -6.75166  -7.86293 
C   -2.39682  -6.80555  -7.12605 
H   0.23905   -8.39444  -2.04265 
H   2.39715   -8.45538  -0.77089 
H   4.40590   -7.30357  -1.64050 
H   7.18440   -3.77215  -3.25991 
H   9.05202   -2.56288  -4.30909 
H   9.35667   -2.78623  -6.75603 
H   6.00786   -5.34697  -6.99706 
H   2.06855   -6.05765  -5.02255 
H   -3.73084  -7.48353  -4.14129 
H   -5.80938  -7.37300  -5.55876 
H   -5.62794  -6.89168  -7.98833 
H   -1.41093  -6.64778  -7.54662 
Pd  -5.38304  -1.28566  -0.39984 
Pd  5.85986   1.39954   0.43526  
C   -0.23582  -0.05886  -0.01686 
H   0.73328   -0.41096  0.40364  
H   -0.09092  0.94054   -0.46896 
H   -0.61162  -0.77726  -0.77296 
H   -1.01512  0.04274   0.75734  
