150

C	-4.29725969894869	3.5530728564423164	-2.751390860326982
C	-3.0000596989486903	4.066972856442316	-3.091590860326982
C	-1.9150596989486903	4.512072856442316	-3.373590860326982
C	-0.6361596989486904	5.059972856442316	-3.721590860326982
C	-0.4678596989486903	6.176172856442316	-4.506190860326982
C	0.7686403010513096	6.687272856442316	-4.829490860326982
C	1.8872403010513097	6.040772856442317	-4.337190860326982
C	1.7705403010513097	4.905872856442317	-3.537690860326982
C	2.9119403010513096	4.216672856442316	-3.014490860326982
C	3.8987403010513098	3.6417728564423166	-2.578390860326982
C	5.07234030105131	2.978472856442316	-2.082290860326982
C	6.34754030105131	3.3760728564423164	-2.4207908603269823
C	7.47464030105131	2.7184728564423164	-1.9282908603269822
C	7.276740301051309	1.6441728564423161	-1.081190860326982
N	6.025240301051309	1.2748728564423162	-0.7653908603269821
C	4.92894030105131	1.9043728564423161	-1.2364908603269822
C	0.49554030105130975	4.435372856442316	-3.244390860326982
C	-5.45885969894869	4.0053728564423166	-3.363790860326982
C	-6.691559698948691	3.5090728564423164	-3.032590860326982
C	-6.78015969894869	2.5298728564423163	-2.060590860326982
N	-5.65255969894869	2.0967728564423167	-1.471990860326982
C	-4.43235969894869	2.5811728564423166	-1.7929908603269822
H	-1.3351596989486902	6.688372856442316	-4.895690860326982
H	0.8329403010513097	7.567572856442316	-5.4504908603269815
H	2.8688403010513097	6.4108728564423165	-4.568590860326982
H	6.42774030105131	4.225572856442317	-3.088990860326982
H	8.44094030105131	3.0756728564423166	-2.228590860326982
H	8.12324030105131	1.117172856442316	-0.6851908603269821
H	3.9516403010513095	1.562672856442316	-0.948090860326982
H	0.42624030105130967	3.5590728564423166	-2.626390860326982
H	-5.4016596989486905	4.770972856442317	-4.125590860326982
H	-7.564259698948691	3.8993728564423162	-3.5434908603269824
H	-7.76205969894869	2.1439728564423164	-1.806190860326982
H	-3.5187596989486902	2.2253728564423163	-1.3112908603269822
C	-4.694800687454695	2.809640941943789	2.953926808862189
C	-3.4720700619237177	3.1399813262728515	3.6309512824744457
C	-2.4513681656189243	3.413809695374795	4.212370815303168
C	-1.2511235376690308	3.7522910352085233	4.9206976012302475
C	-1.2214838484505348	4.540723741880919	6.046450614049787
C	-0.05874119608778586	4.854729893343912	6.712864908029021
C	1.1294017440420414	4.3486214198881585	6.219146296959986
C	1.153202551097523	3.54470591696881	5.081618039838678
C	2.36919125166837	3.007272197519527	4.548640256734229
C	3.4179168258906762	2.5589683570177555	4.108565494263741
C	4.66273615488909	2.048453374321512	3.605357435311391
C	5.878759940344514	2.3767323675089753	4.164215293660445
C	7.0767715876823	1.8702883752017156	3.660597387407212
C	7.011705926070364	1.0198471670823104	2.5727648997458963
N	5.815728907042209	0.7141799661956658	2.0449667259534388
C	4.651692109009268	1.1987936203876457	2.5248074172207686
C	-0.05268778386293639	3.26126439032944	4.450341918774928
C	-5.899112978125205	3.4352985939327496	3.249067485570108
C	-7.060092223654772	3.113429364084985	2.5978503095628995
C	-7.030417340362394	2.1375206279967327	1.6189794599978438
N	-5.86207109295779	1.536079966195666	1.3383667259534393
C	-4.712040642374749	1.8478104793764267	1.9761962093452214
H	-2.1440474062023043	4.940983341979988	6.440071134903224
H	-0.10318988233931939	5.479404694852589	7.591789982566439
H	2.056828489223733	4.572469886823376	6.712937777417523
H	5.854556553437668	3.0483016428403515	5.014499031299316
H	7.991401524749728	2.1631153547501762	4.139358348919906
H	7.915505994970362	0.613213504454384	2.1617883190577034
H	3.724260730488596	0.9180469246876195	2.059940693321578
H	-0.013686241760682075	2.639656717570981	3.5747215895902644
H	-5.934266128096829	4.200269655099201	4.012833137864675
H	-7.970934281482206	3.634534775022346	2.8694641648510504
H	-7.956319108236177	1.8905987450850772	1.109566778581718
H	-3.7648393292142783	1.355682999174884	1.7440029588456452
C	-5.049839410534648	-2.895210865477892	2.1858168454645144
C	-3.887336786519454	-3.5822281980814714	2.674848463931104
C	-2.916824550778595	-4.171998042277759	3.081223341542854
C	-1.7779902400094567	-4.890061585926491	3.5755155424702094
C	-1.8624808022543897	-6.012160212113862	4.365186681616088
C	-0.7572228085330073	-6.688076435635383	4.830181709649067
C	0.49156205503595907	-6.20819631432549	4.481127367615279
C	0.6311686864675611	-5.074908515285742	3.6830134014375373
C	1.9120307610761367	-4.556190729326126	3.3063795681742874
C	3.014531537899642	-4.128338658599725	2.9966989218970332
C	4.320177421814596	-3.639531473341346	2.650613063394088
C	5.4774907177711	-4.208335182768349	3.136299510749144
C	6.736203499731214	-3.7186520442913253	2.7881602046926104
C	6.7932510086369335	-2.6344386477243016	1.9325375060501244
N	5.652559698948691	-2.0967728564423163	1.471990860326982
C	4.4306100532885315	-2.5631111835443314	1.802818274769474
C	-0.5211972641167761	-4.4335670832707	3.2428384095141536
C	-6.328196954393085	-3.175783219406093	2.6505799617629293
C	-7.430837496598298	-2.515118665154567	2.178073240709118
C	-7.2646435033198395	-1.5413798396117058	1.2107682959122
N	-6.02524030105131	-1.2748728564423164	0.7653908603269819
C	-4.9320016393284	-1.9220959255195453	1.2263723430012368
H	-2.8331812984673173	-6.394999150283946	4.643472998334643
H	-0.8913853672292991	-7.563459410425799	5.446954467876233
H	1.3769787520084784	-6.709699577203918	4.825496762371207
H	5.357591848320073	-5.055041120461938	3.8020974126524054
H	7.600115105347672	-4.204664913038535	3.1992025979968792
H	7.7463521988509925	-2.23409711235265	1.6454277251843155
H	3.5522953755970197	-2.090810410830751	1.4021387930814142
H	-0.39286748276742794	-3.561421682363939	2.6284101818943486
H	-6.470224146559858	-3.9354129622307803	3.407247240361207
H	-8.404399173305567	-2.775476169814203	2.5772596901463958
H	-8.14539042563455	-1.0243841276239631	0.8436633073606257
H	-3.9265569532799236	-1.7013609914962908	0.8607898458837875
C	-4.652298422028643	-2.1517789509793643	-3.519500823724657
C	-3.4153264235444265	-2.6552366679120074	-4.047693678870325
C	-2.3805160841083604	-3.073734881210239	-4.504738334087297
C	-1.1630264012891165	-3.5823797646926985	-5.06677291908702
C	-1.1088566527525456	-4.376711097552465	-6.1874547927606836
C	0.07015868860608798	-4.85553347253698	-6.712174058706935
C	1.2494006120452275	-4.516044877771333	-6.075209789671689
C	1.2485064364213474	-3.7137415758122367	-4.936295498728123
C	2.4547798104590757	-3.346790070403336	-4.2567515488869265
C	3.495355013060276	-3.0455341591751646	-3.69025743269369
C	4.729781567976815	-2.709511991220542	-3.037035232244286
C	5.946271078477896	-3.2089946938350074	-3.448706643238283
C	7.134072213100223	-2.8704675630507253	-2.8007280430415844
C	7.0582853836178785	-2.010112958364296	-1.7214182540227538
N	5.862071092957789	-1.5360799661956663	-1.3383667259534393
C	4.7078582453305735	-1.8575319474896614	-1.9584800027782772
C	0.027030820797469823	-3.259458617157823	-4.451894369587758
C	-5.88794367521657	-2.6057089568965264	-3.962278384134161
C	-7.062304971892217	-2.119475172797236	-3.4523679291807645
C	-7.014385861906135	-1.149027611166122	-2.468802024412626
N	-5.815728907042209	-0.7141799661956663	-2.044966725953439
C	-4.652320695902341	-1.1887335484536556	-2.5428147266709673
H	-2.024293591213703	-4.647609635821617	-6.692288996895565
H	0.04474481616132964	-5.475291248836071	-7.595326375017189
H	2.1889905638360547	-4.871296607584978	-6.456031875373298
H	5.930775595933715	-3.8777699068599736	-4.301392478973893
H	8.049653881649254	-3.292107411346395	-3.1687466112500093
H	7.954086504931941	-1.7301377603647188	-1.2015514542003702
H	3.7796749461597328	-1.4461844790760547	-1.6058927605671458
H	0.04705906004456373	-2.6420055434926035	-3.5727022680228986
H	-5.937617717411719	-3.364709760887665	-4.731176757830451
H	-7.997724590772052	-2.5106380883942334	-3.8356953350316374
H	-7.951131016347064	-0.7710100162667244	-2.072094331548074
H	-3.680477323014335	-0.831671134228859	-2.19450397328884
Pd	-5.838900000000001	0.4109500000000001	-0.3533
Pd	5.838900000000001	-0.4109500000000001	0.3533
O	-2.6617108164116416	0.1744278086472194	-0.16005246091514208
C	-1.406899391751725	0.10310284463868293	-0.08673092211424836
C	-0.5361463603359543	1.2666456878609962	-0.25424337020805493
C	0.7817644599291261	1.1846775612428455	-0.17597315846097342
C	1.4085384395583904	-0.11111657390676119	0.08740715168307805
C	0.5481926156935469	-1.2645221070471713	0.25362926055975193
C	-0.7904217215144121	-1.187054346306414	0.17521381394935454
O	2.66367521883434	-0.1831708292912368	0.16083949870932918
H	-0.9808480184416685	2.229042051269626	-0.4488759856040171
H	1.4377871626478067	2.036480306282499	-0.29778377811537127
H	0.971950119635886	-2.2350862189057428	0.44878177175225586
H	-1.4261106436470279	-2.0523441362231827	0.3004386666890079
