
 OpenBabel03272015013D

  5  4  0  0  0  0  0  0  0  0999 V2000
   -0.2783    0.0756    0.0000 C   0  0  0  0  0  0  0  0  0  0  0  0
    0.7917    0.0756    0.0000 H   0  0  0  0  0  0  0  0  0  0  0  0
   -0.6349   -0.9294   -0.0876 H   0  0  0  0  0  0  0  0  0  0  0  0
   -0.6349    0.6539   -0.8266 H   0  0  0  0  0  0  0  0  0  0  0  0
   -0.6349    0.5022    0.9141 H   0  0  0  0  0  0  0  0  0  0  0  0
  1  2  1  0  0  0  0
  1  3  1  0  0  0  0
  1  4  1  0  0  0  0
  1  5  1  0  0  0  0
M  END
