25
/Users/tom/mnt1/cages/uncat/1_2/quinone1_2_ts.xyz
H	-1.600903	-2.230675	-1.883605
H	-3.031271	-2.036622	-0.857899
H	-2.675842	-0.823060	-2.109891
H	-0.148007	-0.926451	1.381504
H	-0.179740	1.074742	1.360017
C	-1.419347	0.701919	-0.359007
C	-1.409043	-0.715923	-0.355767
C	-0.575190	1.456190	0.417994
C	1.545821	0.704151	-0.306200
C	1.471403	-0.680888	-0.395502
C	-0.499305	-1.375293	0.452171
C	-2.219883	-1.484970	-1.359908
H	-1.986816	1.200225	-1.151297
H	-0.506182	2.536972	0.273173
H	-0.378761	-2.459315	0.369135
C	1.387470	1.555776	-1.497949
H	2.041902	1.182338	0.542123
C	1.188296	-1.343442	-1.691252
H	1.967130	-1.312378	0.346042
C	0.742487	-0.455307	-2.790254
C	0.830873	0.882395	-2.700961
H	0.389420	-0.960999	-3.693576
H	0.555089	1.542430	-3.528047
O	1.296201	-2.543918	-1.859832
O	1.700369	2.732212	-1.528171
