28
Coordinates from ORCA-job /scratch/2083961.1.multiway.q/quinone12_2_ts
  H   -1.55671219174868     -2.26646732673633     -1.87086568838624
  H   -3.00839005554812     -2.04352138411958     -0.88050416174625
  H   -2.62442889785593     -0.86544651699523     -2.15850837551394
  H   -0.16560620871334     -0.86822292579849      1.38186732947104
  H   -0.18936089076273      1.13404891763864      1.29564113244358
  C   -1.40717527471974      0.70774094952333     -0.42750046399737
  C   -1.39455418895731     -0.70936060696377     -0.38382077757961
  C   -0.57887333184865      1.48693764111886      0.34034210391039
  C   1.57226437246677      0.67636247702767     -0.31752822848673
  C   1.46974489697540     -0.70748002754422     -0.38209708667443
  C   -0.49465479941262     -1.34325941908673      0.45723018374831
  C   -2.18599225859034     -1.50677387732912     -1.38080922705844
  H   -1.96487383387048      1.18175144340662     -1.24146053817895
  H   -0.50754130557735      2.56246647992876      0.16158153687890
  H   -0.37966860601987     -2.43001303357788      0.41200984991039
  C   1.41649687126904      1.50770065407492     -1.51724171599947
  H   2.06785066693275      1.16371275797480      0.52571777742458
  C   1.18733143605388     -1.37813474174250     -1.67668435233836
  H   1.96131661441205     -1.33502518651014      0.36575345522934
  C   0.72882788016180     -0.50253938600051     -2.77097156156037
  C   0.79967690584702      0.84357451891018     -2.71103468256094
  H   0.35035516843159     -1.01651400273575     -3.65992212630275
  C   0.35614688962640      1.75871185477103     -3.79534009071528
  O   1.28611995012718     -2.58313256818629     -1.82458095182652
  O   1.76335435615947      2.67464513187572     -1.57641292533874
  H   -0.06054176966852      1.21117821066747     -4.65075606117620
  H   1.19914669912713      2.38497112462655     -4.12410797601887
  H   -0.39928909429679      2.46096884178198     -3.40750637755706
