28
Coordinates from ORCA-job /scratch/2083962.1.multiway.q/quinone12_8_ts
  H   -0.19414199689897      0.96419222538263      1.42958702069283
  C   -1.33897739266955      0.76613213539276     -0.38187570487030
  C   -1.44179826401854     -0.63047263283279     -0.43532695712084
  C   -0.43196679314589      1.40401775363816      0.45818786058432
  C   1.44915056963718      0.79955796459034     -0.24633363881061
  C   1.53486123373564     -0.59552966763200     -0.26622785058512
  C   -0.68897850771688     -1.47592951053782      0.35899185923235
  H   -1.84169979380756      1.35139909077535     -1.15691390338106
  H   -0.32955719893678      2.49146084037777      0.40934134375004
  C   1.32723566793081      1.54583071230841     -1.52639795130092
  H   1.96614367128117      1.35622645156121      0.54106286722554
  C   1.38354442736689     -1.33734116589243     -1.51363537112382
  H   1.98656508977387     -1.14267476843921      0.56446177127064
  C   0.85854060366313     -0.57009942620272     -2.66663943954215
  C   0.80354227011299      0.77828642989569     -2.69272420021599
  H   0.55780282572753     -1.16970182688353     -3.53141124923850
  C   0.33187599114957      1.58769415675450     -3.85071946587536
  O   1.66134162757145     -2.52584716339410     -1.61967798080589
  O   1.60720963243574      2.72427853009206     -1.62637156123652
  H   -0.05536839366720      0.95428331667659     -4.65953426733768
  H   1.15118881519129      2.21577305987655     -4.23287041052165
  H   -0.45493250671965      2.28861704890861     -3.53013069206106
  C   -0.68646813501879     -2.95017615967799      0.19319645978637
  H   -0.26841875813512     -1.08242298669277      1.28751117499619
  H   -0.95702637019360     -3.46073845755777      1.13075165174378
  H   0.31769584998147     -3.30259234114563     -0.10949054966135
  H   -1.38177770978238     -3.26478379232369     -0.59675020782276
  H   -2.03428645484782     -1.07676981701818     -1.24104060777046
