32
Coordinates from ORCA-job /scratch/2083966.1.multiway.q/quinone16_3_ts
  C   -1.38673029191421      0.71052451684239     -0.56935856525496
  C   -1.39577859093011     -0.68936128407107     -0.57998961540291
  C   -0.55062492693393      1.14401004166770      0.47159370054879
  C   1.42506747073663      0.70021272164547     -0.37682383730315
  C   1.46241128263982     -0.70876843270248     -0.39270733145433
  C   -0.57244632787110     -1.15365978722735      0.45423086631573
  H   -1.85819668528609     -1.31414715786158     -1.34486544070194
  H   -1.83529419944674      1.35231182614893     -1.32791831955822
  H   -0.42761474616629      2.18703375063770      0.77180766212592
  H   -0.45780076625618     -2.20435394655180      0.72924995050594
  C   1.27128310765945      1.50231473616715     -1.60309413787884
  H   1.95698755725331      1.23041062497229      0.41878512994437
  C   1.19533429802934     -1.43813332615079     -1.65802039612215
  C   2.30649637507559     -1.46417323710726      0.59420188181427
  C   0.74388287471509     -0.63256361109704     -2.82887759935810
  C   0.79028854938299      0.77011548415369     -2.81015276235728
  O   1.34239371454593     -2.64403916403628     -1.74669145963157
  O   1.50728227906299      2.69630091991881     -1.63672590909450
  C   -0.39420504369352     -0.01437025931023      1.40849267127981
  H   0.51269689769505     -0.02647531758327      2.02344557929367
  H   -1.26284480129966     -0.01363964310130      2.09806712043434
  C   0.40597003117383      1.49451983803163     -3.94175506789417
  H   1.99084974452101     -2.51328349689378      0.66081933826175
  H   2.28982152278441     -1.00321082654908      1.59102512955691
  H   3.35439896627228     -1.46805523202329      0.24905479494089
  C   -0.03934561689443      0.82928709240851     -5.07782925136075
  C   -0.08497729461015     -0.57006916854984     -5.09800841341178
  C   0.31300866628884     -1.29613208672957     -3.98203861628096
  H   -0.43068413667440     -1.09272257569804     -5.99341519240076
  H   0.31239156938580     -2.38858067170290     -3.97265619043085
  H   0.47647816898601      2.58384808742888     -3.89730185651967
  H   -0.35038964823154      1.39860958492379     -5.95716386260550
